<?xml version="1.0" encoding="UTF-8"?>

<!--
  marl_network.net.xml
  2×1 signalised grid: two intersections (A0, B0) connected by a shared corridor.
  Generated from netgenerate config:
    grid=true  x-number=2  y-number=1  attach-length=200
    default.lanenumber=2  default-junction-type=traffic_light
  Manually kept in sync with the cooperative-MARL demo routes.
-->

<net version="1.20" junctionCornerDetail="5" limitTurnSpeed="5.50"
     xmlns:xsi="http://www.w3.org/2001/XMLSchema-instance"
     xsi:noNamespaceSchemaLocation="http://sumo.dlr.de/xsd/net_file.xsd">

    <location netOffset="0.00,0.00"
              convBoundary="0.00,0.00,500.00,400.00"
              origBoundary="0.00,0.00,500.00,400.00"
              projParameter="!"/>

    <!-- ============================================================
         INTERNAL EDGES  (junction turning movements)
         ============================================================ -->

    <!-- A0 internals -->
    <edge id=":A0_0"  function="internal"><lane id=":A0_0_0"  index="0" speed="6.51"  length="9.03"  shape="195.20,210.40 194.85,207.95 193.80,206.20 192.05,205.15 189.60,204.80"/></edge>
    <edge id=":A0_1"  function="internal"><lane id=":A0_1_0"  index="0" speed="13.89" length="20.80" shape="195.20,210.40 195.20,189.60"/><lane id=":A0_1_1" index="1" speed="13.89" length="20.80" shape="198.40,210.40 198.40,189.60"/></edge>
    <edge id=":A0_3"  function="internal"><lane id=":A0_3_0"  index="0" speed="9.26"  length="5.01"  shape="198.40,210.40 199.11,205.44"/></edge>
    <edge id=":A0_4"  function="internal"><lane id=":A0_4_0"  index="0" speed="3.65"  length="1.44"  shape="198.40,210.40 199.20,209.20"/></edge>
    <edge id=":A0_20" function="internal"><lane id=":A0_20_0" index="0" speed="9.26"  length="14.34" shape="199.11,205.44 199.15,205.15 201.40,201.40 205.15,199.15 210.40,198.40"/></edge>
    <edge id=":A0_21" function="internal"><lane id=":A0_21_0" index="0" speed="3.65"  length="3.23"  shape="199.20,209.20 200.00,208.80 200.80,209.20 201.60,210.40"/></edge>
    <edge id=":A0_5"  function="internal"><lane id=":A0_5_0"  index="0" speed="6.51"  length="9.03"  shape="210.40,204.80 207.95,205.15 206.20,206.20 205.15,207.95 204.80,210.40"/></edge>
    <edge id=":A0_6"  function="internal"><lane id=":A0_6_0"  index="0" speed="13.89" length="20.80" shape="210.40,204.80 189.60,204.80"/><lane id=":A0_6_1" index="1" speed="13.89" length="20.80" shape="210.40,201.60 189.60,201.60"/></edge>
    <edge id=":A0_8"  function="internal"><lane id=":A0_8_0"  index="0" speed="9.26"  length="5.01"  shape="210.40,201.60 205.44,200.89"/></edge>
    <edge id=":A0_9"  function="internal"><lane id=":A0_9_0"  index="0" speed="3.65"  length="1.44"  shape="210.40,201.60 209.20,200.80"/></edge>
    <edge id=":A0_22" function="internal"><lane id=":A0_22_0" index="0" speed="9.26"  length="14.34" shape="205.44,200.89 205.15,200.85 201.40,198.60 199.15,194.85 198.40,189.60"/></edge>
    <edge id=":A0_23" function="internal"><lane id=":A0_23_0" index="0" speed="3.65"  length="3.23"  shape="209.20,200.80 208.80,200.00 209.20,199.20 210.40,198.40"/></edge>
    <edge id=":A0_10" function="internal"><lane id=":A0_10_0" index="0" speed="6.51"  length="9.03"  shape="204.80,189.60 205.15,192.05 206.20,193.80 207.95,194.85 210.40,195.20"/></edge>
    <edge id=":A0_11" function="internal"><lane id=":A0_11_0" index="0" speed="13.89" length="20.80" shape="204.80,189.60 204.80,210.40"/><lane id=":A0_11_1" index="1" speed="13.89" length="20.80" shape="201.60,189.60 201.60,210.40"/></edge>
    <edge id=":A0_13" function="internal"><lane id=":A0_13_0" index="0" speed="9.26"  length="5.01"  shape="201.60,189.60 200.89,194.56"/></edge>
    <edge id=":A0_14" function="internal"><lane id=":A0_14_0" index="0" speed="3.65"  length="1.44"  shape="201.60,189.60 200.80,190.80"/></edge>
    <edge id=":A0_24" function="internal"><lane id=":A0_24_0" index="0" speed="9.26"  length="14.34" shape="200.89,194.56 200.85,194.85 198.60,198.60 194.85,200.85 189.60,201.60"/></edge>
    <edge id=":A0_25" function="internal"><lane id=":A0_25_0" index="0" speed="3.65"  length="3.23"  shape="200.80,190.80 200.00,191.20 199.20,190.80 198.40,189.60"/></edge>
    <edge id=":A0_15" function="internal"><lane id=":A0_15_0" index="0" speed="6.51"  length="9.03"  shape="189.60,195.20 192.05,194.85 193.80,193.80 194.85,192.05 195.20,189.60"/></edge>
    <edge id=":A0_16" function="internal"><lane id=":A0_16_0" index="0" speed="13.89" length="20.80" shape="189.60,195.20 210.40,195.20"/><lane id=":A0_16_1" index="1" speed="13.89" length="20.80" shape="189.60,198.40 210.40,198.40"/></edge>
    <edge id=":A0_18" function="internal"><lane id=":A0_18_0" index="0" speed="9.26"  length="5.01"  shape="189.60,198.40 194.56,199.11"/></edge>
    <edge id=":A0_19" function="internal"><lane id=":A0_19_0" index="0" speed="3.65"  length="1.44"  shape="189.60,198.40 190.80,199.20"/></edge>
    <edge id=":A0_26" function="internal"><lane id=":A0_26_0" index="0" speed="9.26"  length="14.34" shape="194.56,199.11 194.85,199.15 198.60,201.40 200.85,205.15 201.60,210.40"/></edge>
    <edge id=":A0_27" function="internal"><lane id=":A0_27_0" index="0" speed="3.65"  length="3.23"  shape="190.80,199.20 191.20,200.00 190.80,200.80 189.60,201.60"/></edge>

    <!-- B0 internals -->
    <edge id=":B0_0"  function="internal"><lane id=":B0_0_0"  index="0" speed="6.51"  length="9.03"  shape="295.20,210.40 294.85,207.95 293.80,206.20 292.05,205.15 289.60,204.80"/></edge>
    <edge id=":B0_1"  function="internal"><lane id=":B0_1_0"  index="0" speed="13.89" length="20.80" shape="295.20,210.40 295.20,189.60"/><lane id=":B0_1_1" index="1" speed="13.89" length="20.80" shape="298.40,210.40 298.40,189.60"/></edge>
    <edge id=":B0_3"  function="internal"><lane id=":B0_3_0"  index="0" speed="9.26"  length="5.01"  shape="298.40,210.40 299.11,205.44"/></edge>
    <edge id=":B0_4"  function="internal"><lane id=":B0_4_0"  index="0" speed="3.65"  length="1.44"  shape="298.40,210.40 299.20,209.20"/></edge>
    <edge id=":B0_20" function="internal"><lane id=":B0_20_0" index="0" speed="9.26"  length="14.34" shape="299.11,205.44 299.15,205.15 301.40,201.40 305.15,199.15 310.40,198.40"/></edge>
    <edge id=":B0_21" function="internal"><lane id=":B0_21_0" index="0" speed="3.65"  length="3.23"  shape="299.20,209.20 300.00,208.80 300.80,209.20 301.60,210.40"/></edge>
    <edge id=":B0_5"  function="internal"><lane id=":B0_5_0"  index="0" speed="6.51"  length="9.03"  shape="310.40,204.80 307.95,205.15 306.20,206.20 305.15,207.95 304.80,210.40"/></edge>
    <edge id=":B0_6"  function="internal"><lane id=":B0_6_0"  index="0" speed="13.89" length="20.80" shape="310.40,204.80 289.60,204.80"/><lane id=":B0_6_1" index="1" speed="13.89" length="20.80" shape="310.40,201.60 289.60,201.60"/></edge>
    <edge id=":B0_8"  function="internal"><lane id=":B0_8_0"  index="0" speed="9.26"  length="5.01"  shape="310.40,201.60 305.44,200.89"/></edge>
    <edge id=":B0_9"  function="internal"><lane id=":B0_9_0"  index="0" speed="3.65"  length="1.44"  shape="310.40,201.60 309.20,200.80"/></edge>
    <edge id=":B0_22" function="internal"><lane id=":B0_22_0" index="0" speed="9.26"  length="14.34" shape="305.44,200.89 305.15,200.85 301.40,198.60 299.15,194.85 298.40,189.60"/></edge>
    <edge id=":B0_23" function="internal"><lane id=":B0_23_0" index="0" speed="3.65"  length="3.23"  shape="309.20,200.80 308.80,200.00 309.20,199.20 310.40,198.40"/></edge>
    <edge id=":B0_10" function="internal"><lane id=":B0_10_0" index="0" speed="6.51"  length="9.03"  shape="304.80,189.60 305.15,192.05 306.20,193.80 307.95,194.85 310.40,195.20"/></edge>
    <edge id=":B0_11" function="internal"><lane id=":B0_11_0" index="0" speed="13.89" length="20.80" shape="304.80,189.60 304.80,210.40"/><lane id=":B0_11_1" index="1" speed="13.89" length="20.80" shape="301.60,189.60 301.60,210.40"/></edge>
    <edge id=":B0_13" function="internal"><lane id=":B0_13_0" index="0" speed="9.26"  length="5.01"  shape="301.60,189.60 300.89,194.56"/></edge>
    <edge id=":B0_14" function="internal"><lane id=":B0_14_0" index="0" speed="3.65"  length="1.44"  shape="301.60,189.60 300.80,190.80"/></edge>
    <edge id=":B0_24" function="internal"><lane id=":B0_24_0" index="0" speed="9.26"  length="14.34" shape="300.89,194.56 300.85,194.85 298.60,198.60 294.85,200.85 289.60,201.60"/></edge>
    <edge id=":B0_25" function="internal"><lane id=":B0_25_0" index="0" speed="3.65"  length="3.23"  shape="300.80,190.80 300.00,191.20 299.20,190.80 298.40,189.60"/></edge>
    <edge id=":B0_15" function="internal"><lane id=":B0_15_0" index="0" speed="6.51"  length="9.03"  shape="289.60,195.20 292.05,194.85 293.80,193.80 294.85,192.05 295.20,189.60"/></edge>
    <edge id=":B0_16" function="internal"><lane id=":B0_16_0" index="0" speed="13.89" length="20.80" shape="289.60,195.20 310.40,195.20"/><lane id=":B0_16_1" index="1" speed="13.89" length="20.80" shape="289.60,198.40 310.40,198.40"/></edge>
    <edge id=":B0_18" function="internal"><lane id=":B0_18_0" index="0" speed="9.26"  length="5.01"  shape="289.60,198.40 294.56,199.11"/></edge>
    <edge id=":B0_19" function="internal"><lane id=":B0_19_0" index="0" speed="3.65"  length="1.44"  shape="289.60,198.40 290.80,199.20"/></edge>
    <edge id=":B0_26" function="internal"><lane id=":B0_26_0" index="0" speed="9.26"  length="14.34" shape="294.56,199.11 294.85,199.15 298.60,201.40 300.85,205.15 301.60,210.40"/></edge>
    <edge id=":B0_27" function="internal"><lane id=":B0_27_0" index="0" speed="3.65"  length="3.23"  shape="290.80,199.20 291.20,200.00 290.80,200.80 289.60,201.60"/></edge>

    <!-- fringe U-turn stubs -->
    <edge id=":bottom0_0" function="internal"><lane id=":bottom0_0_0" index="0" speed="3.65" length="4.67" shape="198.40,0.00 199.20,-1.20 200.00,-1.60 200.80,-1.20 201.60,0.00"/></edge>
    <edge id=":bottom1_0" function="internal"><lane id=":bottom1_0_0" index="0" speed="3.65" length="4.67" shape="298.40,0.00 299.20,-1.20 300.00,-1.60 300.80,-1.20 301.60,0.00"/></edge>
    <edge id=":left0_0"   function="internal"><lane id=":left0_0_0"   index="0" speed="3.65" length="4.67" shape="0.00,201.60 -1.20,200.80 -1.60,200.00 -1.20,199.20 0.00,198.40"/></edge>
    <edge id=":right0_0"  function="internal"><lane id=":right0_0_0"  index="0" speed="3.65" length="4.67" shape="500.00,198.40 501.20,199.20 501.60,200.00 501.20,200.80 500.00,201.60"/></edge>
    <edge id=":top0_0"    function="internal"><lane id=":top0_0_0"    index="0" speed="3.65" length="4.67" shape="201.60,400.00 200.80,401.20 200.00,401.60 199.20,401.20 198.40,400.00"/></edge>
    <edge id=":top1_0"    function="internal"><lane id=":top1_0_0"    index="0" speed="3.65" length="4.67" shape="301.60,400.00 300.80,401.20 300.00,401.60 299.20,401.20 298.40,400.00"/></edge>

    <!-- ============================================================
         NORMAL EDGES
         ============================================================ -->

    <!-- Inter-junction corridor -->
    <edge id="A0B0" from="A0" to="B0" priority="-1">
        <lane id="A0B0_0" index="0" speed="13.89" length="79.20" shape="210.40,195.20 289.60,195.20"/>
        <lane id="A0B0_1" index="1" speed="13.89" length="79.20" shape="210.40,198.40 289.60,198.40"/>
    </edge>
    <edge id="B0A0" from="B0" to="A0" priority="-1">
        <lane id="B0A0_0" index="0" speed="13.89" length="79.20" shape="289.60,204.80 210.40,204.80"/>
        <lane id="B0A0_1" index="1" speed="13.89" length="79.20" shape="289.60,201.60 210.40,201.60"/>
    </edge>

    <!-- A0 arms -->
    <edge id="A0bottom0" from="A0" to="bottom0" priority="-1">
        <lane id="A0bottom0_0" index="0" speed="13.89" length="189.60" shape="195.20,189.60 195.20,0.00"/>
        <lane id="A0bottom0_1" index="1" speed="13.89" length="189.60" shape="198.40,189.60 198.40,0.00"/>
    </edge>
    <edge id="A0left0"   from="A0" to="left0"   priority="-1">
        <lane id="A0left0_0"   index="0" speed="13.89" length="189.60" shape="189.60,204.80 0.00,204.80"/>
        <lane id="A0left0_1"   index="1" speed="13.89" length="189.60" shape="189.60,201.60 0.00,201.60"/>
    </edge>
    <edge id="A0top0"    from="A0" to="top0"    priority="-1">
        <lane id="A0top0_0"    index="0" speed="13.89" length="189.60" shape="204.80,210.40 204.80,400.00"/>
        <lane id="A0top0_1"    index="1" speed="13.89" length="189.60" shape="201.60,210.40 201.60,400.00"/>
    </edge>
    <edge id="bottom0A0" from="bottom0" to="A0" priority="-1">
        <lane id="bottom0A0_0" index="0" speed="13.89" length="189.60" shape="204.80,0.00 204.80,189.60"/>
        <lane id="bottom0A0_1" index="1" speed="13.89" length="189.60" shape="201.60,0.00 201.60,189.60"/>
    </edge>
    <edge id="left0A0"   from="left0"   to="A0" priority="-1">
        <lane id="left0A0_0"   index="0" speed="13.89" length="189.60" shape="0.00,195.20 189.60,195.20"/>
        <lane id="left0A0_1"   index="1" speed="13.89" length="189.60" shape="0.00,198.40 189.60,198.40"/>
    </edge>
    <edge id="top0A0"    from="top0"    to="A0" priority="-1">
        <lane id="top0A0_0"    index="0" speed="13.89" length="189.60" shape="195.20,400.00 195.20,210.40"/>
        <lane id="top0A0_1"    index="1" speed="13.89" length="189.60" shape="198.40,400.00 198.40,210.40"/>
    </edge>

    <!-- B0 arms -->
    <edge id="B0bottom1" from="B0" to="bottom1" priority="-1">
        <lane id="B0bottom1_0" index="0" speed="13.89" length="189.60" shape="295.20,189.60 295.20,0.00"/>
        <lane id="B0bottom1_1" index="1" speed="13.89" length="189.60" shape="298.40,189.60 298.40,0.00"/>
    </edge>
    <edge id="B0right0"  from="B0" to="right0"  priority="-1">
        <lane id="B0right0_0"  index="0" speed="13.89" length="189.60" shape="310.40,195.20 500.00,195.20"/>
        <lane id="B0right0_1"  index="1" speed="13.89" length="189.60" shape="310.40,198.40 500.00,198.40"/>
    </edge>
    <edge id="B0top1"    from="B0" to="top1"    priority="-1">
        <lane id="B0top1_0"    index="0" speed="13.89" length="189.60" shape="304.80,210.40 304.80,400.00"/>
        <lane id="B0top1_1"    index="1" speed="13.89" length="189.60" shape="301.60,210.40 301.60,400.00"/>
    </edge>
    <edge id="bottom1B0" from="bottom1" to="B0" priority="-1">
        <lane id="bottom1B0_0" index="0" speed="13.89" length="189.60" shape="304.80,0.00 304.80,189.60"/>
        <lane id="bottom1B0_1" index="1" speed="13.89" length="189.60" shape="301.60,0.00 301.60,189.60"/>
    </edge>
    <edge id="right0B0"  from="right0"  to="B0" priority="-1">
        <lane id="right0B0_0"  index="0" speed="13.89" length="189.60" shape="500.00,204.80 310.40,204.80"/>
        <lane id="right0B0_1"  index="1" speed="13.89" length="189.60" shape="500.00,201.60 310.40,201.60"/>
    </edge>
    <edge id="top1B0"    from="top1"    to="B0" priority="-1">
        <lane id="top1B0_0"    index="0" speed="13.89" length="189.60" shape="295.20,400.00 295.20,210.40"/>
        <lane id="top1B0_1"    index="1" speed="13.89" length="189.60" shape="298.40,400.00 298.40,210.40"/>
    </edge>

    <!-- ============================================================
         TRAFFIC LIGHT PROGRAMS
         Phase 0 : N-S green  (top/bottom arms)
         Phase 2 : E-W green  (left/right + corridor)
         ============================================================ -->
    <tlLogic id="A0" type="static" programID="0" offset="0">
        <phase duration="42" state="GGGggrrrrrGGGggrrrrr"/>
        <phase duration="3"  state="yyyyyrrrrryyyyyrrrrr"/>
        <phase duration="42" state="rrrrrGGGggrrrrrGGGgg"/>
        <phase duration="3"  state="rrrrryyyyyrrrrryyyyy"/>
    </tlLogic>
    <tlLogic id="B0" type="static" programID="0" offset="0">
        <phase duration="42" state="GGGggrrrrrGGGggrrrrr"/>
        <phase duration="3"  state="yyyyyrrrrryyyyyrrrrr"/>
        <phase duration="42" state="rrrrrGGGggrrrrrGGGgg"/>
        <phase duration="3"  state="rrrrryyyyyrrrrryyyyy"/>
    </tlLogic>
    <!-- fringe nodes always green -->
    <tlLogic id="bottom0" type="static" programID="0" offset="0"><phase duration="82" state="G"/><phase duration="3" state="y"/><phase duration="5" state="r"/></tlLogic>
    <tlLogic id="bottom1" type="static" programID="0" offset="0"><phase duration="82" state="G"/><phase duration="3" state="y"/><phase duration="5" state="r"/></tlLogic>
    <tlLogic id="left0"   type="static" programID="0" offset="0"><phase duration="82" state="G"/><phase duration="3" state="y"/><phase duration="5" state="r"/></tlLogic>
    <tlLogic id="right0"  type="static" programID="0" offset="0"><phase duration="82" state="G"/><phase duration="3" state="y"/><phase duration="5" state="r"/></tlLogic>
    <tlLogic id="top0"    type="static" programID="0" offset="0"><phase duration="82" state="G"/><phase duration="3" state="y"/><phase duration="5" state="r"/></tlLogic>
    <tlLogic id="top1"    type="static" programID="0" offset="0"><phase duration="82" state="G"/><phase duration="3" state="y"/><phase duration="5" state="r"/></tlLogic>

    <!-- ============================================================
         JUNCTIONS
         ============================================================ -->
    <junction id="A0" type="traffic_light" x="200.00" y="200.00"
              incLanes="top0A0_0 top0A0_1 B0A0_0 B0A0_1 bottom0A0_0 bottom0A0_1 left0A0_0 left0A0_1"
              intLanes=":A0_0_0 :A0_1_0 :A0_1_1 :A0_20_0 :A0_21_0 :A0_5_0 :A0_6_0 :A0_6_1 :A0_22_0 :A0_23_0 :A0_10_0 :A0_11_0 :A0_11_1 :A0_24_0 :A0_25_0 :A0_15_0 :A0_16_0 :A0_16_1 :A0_26_0 :A0_27_0"
              shape="193.60,210.40 206.40,210.40 206.84,208.18 207.40,207.40 208.18,206.84 209.18,206.51 210.40,206.40 210.40,193.60 208.18,193.16 207.40,192.60 206.84,191.82 206.51,190.82 206.40,189.60 193.60,189.60 193.16,191.82 192.60,192.60 191.82,193.16 190.82,193.49 189.60,193.60 189.60,206.40 191.82,206.84 192.60,207.40 193.16,208.18 193.49,209.18">
        <request index="0"  response="00000000000000000000" foes="00000000000011000000" cont="0"/>
        <request index="1"  response="01000000000000000000" foes="01111110000111000000" cont="0"/>
        <request index="2"  response="01000000000100000000" foes="01111110000111000000" cont="0"/>
        <request index="3"  response="01000001100100000000" foes="01110001101111000000" cont="1"/>
        <request index="4"  response="01000001100000000000" foes="01000001100000000000" cont="1"/>
        <request index="5"  response="00000001100000000000" foes="00000001100000000000" cont="0"/>
        <request index="6"  response="00000011100000001111" foes="11000011100000001111" cont="0"/>
        <request index="7"  response="00000011100000001111" foes="11000011100000001111" cont="0"/>
        <request index="8"  response="00110011100000001110" foes="00110111100000001110" cont="1"/>
        <request index="9"  response="00110000000000001000" foes="00110000000000001000" cont="1"/>
        <request index="10" response="00000000000000000000" foes="00110000000000000000" cont="0"/>
        <request index="11" response="00000000000100000000" foes="01110000000111111000" cont="0"/>
        <request index="12" response="01000000000100000000" foes="01110000000111111000" cont="0"/>
        <request index="13" response="01000000000100000110" foes="11110000000111000110" cont="1"/>
        <request index="14" response="00000000000100000110" foes="00000000000100000110" cont="1"/>
        <request index="15" response="00000000000000000110" foes="00000000000000000110" cont="0"/>
        <request index="16" response="00000011110000001110" foes="00000011111100001110" cont="0"/>
        <request index="17" response="00000011110000001110" foes="00000011111100001110" cont="0"/>
        <request index="18" response="00000011100011001110" foes="00000011100011011110" cont="1"/>
        <request index="19" response="00000010000011000000" foes="00000010000011000000" cont="1"/>
    </junction>
    <junction id="B0" type="traffic_light" x="300.00" y="200.00"
              incLanes="top1B0_0 top1B0_1 right0B0_0 right0B0_1 bottom1B0_0 bottom1B0_1 A0B0_0 A0B0_1"
              intLanes=":B0_0_0 :B0_1_0 :B0_1_1 :B0_20_0 :B0_21_0 :B0_5_0 :B0_6_0 :B0_6_1 :B0_22_0 :B0_23_0 :B0_10_0 :B0_11_0 :B0_11_1 :B0_24_0 :B0_25_0 :B0_15_0 :B0_16_0 :B0_16_1 :B0_26_0 :B0_27_0"
              shape="293.60,210.40 306.40,210.40 306.84,208.18 307.40,207.40 308.18,206.84 309.18,206.51 310.40,206.40 310.40,193.60 308.18,193.16 307.40,192.60 306.84,191.82 306.51,190.82 306.40,189.60 293.60,189.60 293.16,191.82 292.60,192.60 291.82,193.16 290.82,193.49 289.60,193.60 289.60,206.40 291.82,206.84 292.60,207.40 293.16,208.18 293.49,209.18">
        <request index="0"  response="00000000000000000000" foes="00000000000011000000" cont="0"/>
        <request index="1"  response="01000000000000000000" foes="01111110000111000000" cont="0"/>
        <request index="2"  response="01000000000100000000" foes="01111110000111000000" cont="0"/>
        <request index="3"  response="01000001100100000000" foes="01110001101111000000" cont="1"/>
        <request index="4"  response="01000001100000000000" foes="01000001100000000000" cont="1"/>
        <request index="5"  response="00000001100000000000" foes="00000001100000000000" cont="0"/>
        <request index="6"  response="00000011100000001111" foes="11000011100000001111" cont="0"/>
        <request index="7"  response="00000011100000001111" foes="11000011100000001111" cont="0"/>
        <request index="8"  response="00110011100000001110" foes="00110111100000001110" cont="1"/>
        <request index="9"  response="00110000000000001000" foes="00110000000000001000" cont="1"/>
        <request index="10" response="00000000000000000000" foes="00110000000000000000" cont="0"/>
        <request index="11" response="00000000000100000000" foes="01110000000111111000" cont="0"/>
        <request index="12" response="01000000000100000000" foes="01110000000111111000" cont="0"/>
        <request index="13" response="01000000000100000110" foes="11110000000111000110" cont="1"/>
        <request index="14" response="00000000000100000110" foes="00000000000100000110" cont="1"/>
        <request index="15" response="00000000000000000110" foes="00000000000000000110" cont="0"/>
        <request index="16" response="00000011110000001110" foes="00000011111100001110" cont="0"/>
        <request index="17" response="00000011110000001110" foes="00000011111100001110" cont="0"/>
        <request index="18" response="00000011100011001110" foes="00000011100011011110" cont="1"/>
        <request index="19" response="00000010000011000000" foes="00000010000011000000" cont="1"/>
    </junction>

    <!-- fringe junctions -->
    <junction id="bottom0" type="traffic_light" x="200.00" y="0.00"   incLanes="A0bottom0_0 A0bottom0_1" intLanes=":bottom0_0_0" shape="200.00,0.00 193.60,0.00 200.00,0.00" fringe="outer"><request index="0" response="0" foes="0" cont="0"/></junction>
    <junction id="bottom1" type="traffic_light" x="300.00" y="0.00"   incLanes="B0bottom1_0 B0bottom1_1" intLanes=":bottom1_0_0" shape="300.00,0.00 293.60,0.00 300.00,0.00" fringe="outer"><request index="0" response="0" foes="0" cont="0"/></junction>
    <junction id="left0"   type="traffic_light" x="0.00"   y="200.00" incLanes="A0left0_0 A0left0_1"   intLanes=":left0_0_0"   shape="0.00,200.00 0.00,206.40 0.00,200.00" fringe="outer"><request index="0" response="0" foes="0" cont="0"/></junction>
    <junction id="right0"  type="traffic_light" x="500.00" y="200.00" incLanes="B0right0_0 B0right0_1"  intLanes=":right0_0_0"  shape="500.00,200.00 500.00,193.60 500.00,200.00" fringe="outer"><request index="0" response="0" foes="0" cont="0"/></junction>
    <junction id="top0"    type="traffic_light" x="200.00" y="400.00" incLanes="A0top0_0 A0top0_1"     intLanes=":top0_0_0"    shape="200.00,400.00 206.40,400.00 200.00,400.00" fringe="outer"><request index="0" response="0" foes="0" cont="0"/></junction>
    <junction id="top1"    type="traffic_light" x="300.00" y="400.00" incLanes="B0top1_0 B0top1_1"     intLanes=":top1_0_0"    shape="300.00,400.00 306.40,400.00 300.00,400.00" fringe="outer"><request index="0" response="0" foes="0" cont="0"/></junction>

    <!-- internal junction helpers -->
    <junction id=":A0_20_0" type="internal" x="199.11" y="205.44" incLanes=":A0_3_0 bottom0A0_0 bottom0A0_1" intLanes=":A0_6_0 :A0_6_1 :A0_8_0 :A0_9_0 :A0_10_0 :A0_11_0 :A0_11_1 :A0_16_0 :A0_16_1 :A0_18_0"/>
    <junction id=":A0_21_0" type="internal" x="199.20" y="209.20" incLanes=":A0_4_0 B0A0_0 bottom0A0_0 bottom0A0_1 left0A0_1" intLanes=":A0_5_0 :A0_11_0 :A0_11_1 :A0_18_0"/>
    <junction id=":A0_22_0" type="internal" x="205.44" y="200.89" incLanes=":A0_8_0 left0A0_0 left0A0_1" intLanes=":A0_1_0 :A0_1_1 :A0_3_0 :A0_11_0 :A0_11_1 :A0_13_0 :A0_14_0 :A0_15_0 :A0_16_0 :A0_16_1"/>
    <junction id=":A0_23_0" type="internal" x="209.20" y="200.80" incLanes=":A0_9_0 bottom0A0_0 left0A0_0 left0A0_1 top0A0_1" intLanes=":A0_3_0 :A0_10_0 :A0_16_0 :A0_16_1"/>
    <junction id=":A0_24_0" type="internal" x="200.89" y="194.56" incLanes=":A0_13_0 top0A0_0 top0A0_1" intLanes=":A0_0_0 :A0_1_0 :A0_1_1 :A0_6_0 :A0_6_1 :A0_8_0 :A0_16_0 :A0_16_1 :A0_18_0 :A0_19_0"/>
    <junction id=":A0_25_0" type="internal" x="200.80" y="190.80" incLanes=":A0_14_0 B0A0_1 left0A0_0 top0A0_0 top0A0_1" intLanes=":A0_1_0 :A0_1_1 :A0_8_0 :A0_15_0"/>
    <junction id=":A0_26_0" type="internal" x="194.56" y="199.11" incLanes=":A0_18_0 B0A0_0 B0A0_1" intLanes=":A0_1_0 :A0_1_1 :A0_3_0 :A0_4_0 :A0_5_0 :A0_6_0 :A0_6_1 :A0_11_0 :A0_11_1 :A0_13_0"/>
    <junction id=":A0_27_0" type="internal" x="190.80" y="199.20" incLanes=":A0_19_0 B0A0_0 B0A0_1 bottom0A0_1 top0A0_0" intLanes=":A0_0_0 :A0_6_0 :A0_6_1 :A0_13_0"/>
    <junction id=":B0_20_0" type="internal" x="299.11" y="205.44" incLanes=":B0_3_0 bottom1B0_0 bottom1B0_1" intLanes=":B0_6_0 :B0_6_1 :B0_8_0 :B0_9_0 :B0_10_0 :B0_11_0 :B0_11_1 :B0_16_0 :B0_16_1 :B0_18_0"/>
    <junction id=":B0_21_0" type="internal" x="299.20" y="209.20" incLanes=":B0_4_0 A0B0_1 bottom1B0_0 bottom1B0_1 right0B0_0" intLanes=":B0_5_0 :B0_11_0 :B0_11_1 :B0_18_0"/>
    <junction id=":B0_22_0" type="internal" x="305.44" y="200.89" incLanes=":B0_8_0 A0B0_0 A0B0_1" intLanes=":B0_1_0 :B0_1_1 :B0_3_0 :B0_11_0 :B0_11_1 :B0_13_0 :B0_14_0 :B0_15_0 :B0_16_0 :B0_16_1"/>
    <junction id=":B0_23_0" type="internal" x="309.20" y="200.80" incLanes=":B0_9_0 A0B0_0 A0B0_1 bottom1B0_0 top1B0_1" intLanes=":B0_3_0 :B0_10_0 :B0_16_0 :B0_16_1"/>
    <junction id=":B0_24_0" type="internal" x="300.89" y="194.56" incLanes=":B0_13_0 top1B0_0 top1B0_1" intLanes=":B0_0_0 :B0_1_0 :B0_1_1 :B0_6_0 :B0_6_1 :B0_8_0 :B0_16_0 :B0_16_1 :B0_18_0 :B0_19_0"/>
    <junction id=":B0_25_0" type="internal" x="300.80" y="190.80" incLanes=":B0_14_0 A0B0_0 right0B0_1 top1B0_0 top1B0_1" intLanes=":B0_1_0 :B0_1_1 :B0_8_0 :B0_15_0"/>
    <junction id=":B0_26_0" type="internal" x="294.56" y="199.11" incLanes=":B0_18_0 right0B0_0 right0B0_1" intLanes=":B0_1_0 :B0_1_1 :B0_3_0 :B0_4_0 :B0_5_0 :B0_6_0 :B0_6_1 :B0_11_0 :B0_11_1 :B0_13_0"/>
    <junction id=":B0_27_0" type="internal" x="290.80" y="199.20" incLanes=":B0_19_0 bottom1B0_1 right0B0_0 right0B0_1 top1B0_0" intLanes=":B0_0_0 :B0_6_0 :B0_6_1 :B0_13_0"/>

    <!-- ============================================================
         CONNECTIONS  (abbreviated — same topology as original)
         ============================================================ -->
    <connection from="A0B0"     to="B0bottom1" fromLane="0" toLane="0" via=":B0_15_0" tl="B0" linkIndex="15" dir="r" state="o"/>
    <connection from="A0B0"     to="B0right0"  fromLane="0" toLane="0" via=":B0_16_0" tl="B0" linkIndex="16" dir="s" state="o"/>
    <connection from="A0B0"     to="B0right0"  fromLane="1" toLane="1" via=":B0_16_1" tl="B0" linkIndex="17" dir="s" state="o"/>
    <connection from="A0B0"     to="B0top1"    fromLane="1" toLane="1" via=":B0_18_0" tl="B0" linkIndex="18" dir="l" state="o"/>
    <connection from="A0B0"     to="B0A0"      fromLane="1" toLane="1" via=":B0_19_0" tl="B0" linkIndex="19" dir="t" state="o"/>
    <connection from="A0bottom0" to="bottom0A0" fromLane="1" toLane="1" via=":bottom0_0_0" tl="bottom0" linkIndex="0" dir="t" state="O"/>
    <connection from="A0left0"   to="left0A0"   fromLane="1" toLane="1" via=":left0_0_0"   tl="left0"   linkIndex="0" dir="t" state="O"/>
    <connection from="A0top0"    to="top0A0"    fromLane="1" toLane="1" via=":top0_0_0"    tl="top0"    linkIndex="0" dir="t" state="O"/>
    <connection from="B0A0"     to="A0top0"    fromLane="0" toLane="0" via=":A0_5_0"  tl="A0" linkIndex="5"  dir="r" state="o"/>
    <connection from="B0A0"     to="A0left0"   fromLane="0" toLane="0" via=":A0_6_0"  tl="A0" linkIndex="6"  dir="s" state="o"/>
    <connection from="B0A0"     to="A0left0"   fromLane="1" toLane="1" via=":A0_6_1"  tl="A0" linkIndex="7"  dir="s" state="o"/>
    <connection from="B0A0"     to="A0bottom0" fromLane="1" toLane="1" via=":A0_8_0"  tl="A0" linkIndex="8"  dir="l" state="o"/>
    <connection from="B0A0"     to="A0B0"      fromLane="1" toLane="1" via=":A0_9_0"  tl="A0" linkIndex="9"  dir="t" state="o"/>
    <connection from="B0bottom1" to="bottom1B0" fromLane="1" toLane="1" via=":bottom1_0_0" tl="bottom1" linkIndex="0" dir="t" state="O"/>
    <connection from="B0right0"  to="right0B0"  fromLane="1" toLane="1" via=":right0_0_0"  tl="right0"  linkIndex="0" dir="t" state="O"/>
    <connection from="B0top1"    to="top1B0"    fromLane="1" toLane="1" via=":top1_0_0"    tl="top1"    linkIndex="0" dir="t" state="O"/>
    <connection from="bottom0A0" to="A0B0"    fromLane="0" toLane="0" via=":A0_10_0" tl="A0" linkIndex="10" dir="r" state="O"/>
    <connection from="bottom0A0" to="A0top0"  fromLane="0" toLane="0" via=":A0_11_0" tl="A0" linkIndex="11" dir="s" state="O"/>
    <connection from="bottom0A0" to="A0top0"  fromLane="1" toLane="1" via=":A0_11_1" tl="A0" linkIndex="12" dir="s" state="O"/>