<routes>
        <vType id="normal" accel="2.0" decel="4.5" sigma="0.5" length="5" minGap="2.5" maxSpeed="15" 
               speedFactor="1.0" speedDev="0.1" guiShape="passenger" jmIgnoreKeepClearTime="30.0"/>
        
        <vType id="kombi" accel="3.5" decel="6.0" sigma="0.9" length="6" minGap="1.0" maxSpeed="20" 
               speedFactor="1.2" speedDev="0.2" laneChangeModel="SL2015" 
               lcStrategic="1.0" lcSpeedGain="10.0" lcCooperative="0.0" lcPushy="1.0" lcAssertive="10" lcImpatience="1.0"
               jmDriveAfterRedTime="2.0" jmDriveAfterYellowTime="5.0" jmIgnoreKeepClearTime="0.1" guiShape="bus"/>
               
        <vType id="mshikashika" accel="4.5" decel="7.0" sigma="1.0" length="4" minGap="0.5" maxSpeed="25" 
               speedFactor="1.4" speedDev="0.3" laneChangeModel="SL2015" 
               lcStrategic="0.1" lcSpeedGain="20.0" lcCooperative="0.0" lcPushy="1.0" lcAssertive="100" lcImpatience="1.0"
               jmDriveAfterRedTime="4.0" jmDriveAfterYellowTime="5.0" jmIgnoreKeepClearTime="0.0" jmIgnoreFoeProb="0.2"
               guiShape="passenger/hatchback"/>
               
        <vType id="truck" accel="0.8" decel="3.0" sigma="0.2" length="12" minGap="4.0" maxSpeed="10" 
               jmIgnoreKeepClearTime="0.1" guiShape="truck"/>
        
        <route id="WE_Straight" edges="left0A0 A0B0 B0right0"/>
        <route id="EW_Straight" edges="right0B0 B0A0 A0left0"/>
        
        <route id="WE_Turn_A0" edges="left0A0 A0bottom0"/>
        <route id="WE_Turn_B0" edges="left0A0 A0B0 B0bottom1"/>
        <route id="EW_Turn_B0" edges="right0B0 B0top1"/>
        <route id="EW_Turn_A0" edges="right0B0 B0A0 A0top0"/>

        <route id="A0_NS" edges="top0A0 A0bottom0"/>
        <route id="A0_SN" edges="bottom0A0 A0top0"/>
        <route id="B0_NS" edges="top1B0 B0bottom1"/>
        <route id="B0_SN" edges="bottom1B0 B0top1"/>
        
    <vehicle id="WE_0" type="normal" route="WE_Straight" depart="0" color="1,1,1"/>
    <vehicle id="EW_0" type="normal" route="EW_Turn_A0" depart="0" color="1,1,1"/>
    <vehicle id="B0_NS_0" type="normal" route="B0_NS" depart="0" color="1,1,1"/>
    <vehicle id="WE_1" type="normal" route="WE_Straight" depart="1" color="1,1,1"/>
    <vehicle id="EW_1" type="normal" route="EW_Turn_A0" depart="1" color="1,1,1"/>
    <vehicle id="WE_2" type="kombi" route="WE_Straight" depart="2" color="1,1,0"/>
    <vehicle id="EW_2" type="kombi" route="EW_Straight" depart="2" color="1,1,0"/>
    <vehicle id="A0_NS_2" type="kombi" route="A0_NS" depart="2" color="1,1,0"/>
    <vehicle id="B0_NS_2" type="kombi" route="B0_NS" depart="2" color="1,1,0"/>
    <vehicle id="WE_3" type="mshikashika" route="WE_Turn_A0" depart="3" color="1,0.5,0"/>
    <vehicle id="EW_3" type="mshikashika" route="EW_Straight" depart="3" color="1,0.5,0"/>
    <vehicle id="WE_4" type="kombi" route="WE_Straight" depart="4" color="1,1,0"/>
    <vehicle id="EW_4" type="kombi" route="EW_Straight" depart="4" color="1,1,0"/>
    <vehicle id="A0_SN_4" type="kombi" route="A0_SN" depart="4" color="1,1,0"/>
    <vehicle id="B0_SN_4" type="kombi" route="B0_SN" depart="4" color="1,1,0"/>
    <vehicle id="WE_5" type="normal" route="WE_Straight" depart="5" color="1,1,1"/>
    <vehicle id="EW_5" type="normal" route="EW_Straight" depart="5" color="1,1,1"/>
    <vehicle id="A0_SN_5" type="normal" route="A0_SN" depart="5" color="1,1,1"/>
    <vehicle id="B0_NS_5" type="normal" route="B0_NS" depart="5" color="1,1,1"/>
    <vehicle id="WE_6" type="truck" route="WE_Straight" depart="6" color="1,0,0"/>
    <vehicle id="EW_6" type="truck" route="EW_Turn_B0" depart="6" color="1,0,0"/>
    <vehicle id="WE_7" type="normal" route="WE_Turn_B0" depart="7" color="1,1,1"/>
    <vehicle id="EW_7" type="normal" route="EW_Straight" depart="7" color="1,1,1"/>
    <vehicle id="WE_8" type="mshikashika" route="WE_Straight" depart="8" color="1,0.5,0"/>
    <vehicle id="EW_8" type="mshikashika" route="EW_Straight" depart="8" color="1,0.5,0"/>
    <vehicle id="WE_9" type="normal" route="WE_Turn_B0" depart="9" color="1,1,1"/>
    <vehicle id="EW_9" type="normal" route="EW_Straight" depart="9" color="1,1,1"/>
    <vehicle id="WE_10" type="normal" route="WE_Straight" depart="10" color="1,1,1"/>
    <vehicle id="EW_10" type="normal" route="EW_Straight" depart="10" color="1,1,1"/>
    <vehicle id="WE_11" type="normal" route="WE_Straight" depart="11" color="1,1,1"/>
    <vehicle id="EW_11" type="normal" route="EW_Straight" depart="11" color="1,1,1"/>
    <vehicle id="B0_SN_11" type="normal" route="B0_SN" depart="11" color="1,1,1"/>
    <vehicle id="WE_12" type="normal" route="WE_Straight" depart="12" color="1,1,1"/>
    <vehicle id="EW_12" type="normal" route="EW_Straight" depart="12" color="1,1,1"/>
    <vehicle id="A0_NS_12" type="normal" route="A0_NS" depart="12" color="1,1,1"/>
    <vehicle id="WE_13" type="mshikashika" route="WE_Turn_A0" depart="13" color="1,0.5,0"/>
    <vehicle id="EW_13" type="mshikashika" route="EW_Turn_B0" depart="13" color="1,0.5,0"/>
    <vehicle id="A0_SN_13" type="mshikashika" route="A0_SN" depart="13" color="1,0.5,0"/>
    <vehicle id="WE_14" type="truck" route="WE_Straight" depart="14" color="1,0,0"/>
    <vehicle id="EW_14" type="truck" route="EW_Straight" depart="14" color="1,0,0"/>
    <vehicle id="WE_15" type="normal" route="WE_Turn_B0" depart="15" color="1,1,1"/>
    <vehicle id="EW_15" type="normal" route="EW_Turn_B0" depart="15" color="1,1,1"/>
    <vehicle id="B0_NS_15" type="normal" route="B0_NS" depart="15" color="1,1,1"/>
    <vehicle id="WE_16" type="normal" route="WE_Straight" depart="16" color="1,1,1"/>
    <vehicle id="EW_16" type="normal" route="EW_Straight" depart="16" color="1,1,1"/>
    <vehicle id="A0_SN_16" type="normal" route="A0_SN" depart="16" color="1,1,1"/>
    <vehicle id="B0_SN_16" type="normal" route="B0_SN" depart="16" color="1,1,1"/>
    <vehicle id="WE_17" type="normal" route="WE_Straight" depart="17" color="1,1,1"/>
    <vehicle id="EW_17" type="normal" route="EW_Straight" depart="17" color="1,1,1"/>
    <vehicle id="WE_18" type="normal" route="WE_Turn_B0" depart="18" color="1,1,1"/>
    <vehicle id="EW_18" type="normal" route="EW_Straight" depart="18" color="1,1,1"/>
    <vehicle id="B0_SN_18" type="normal" route="B0_SN" depart="18" color="1,1,1"/>
    <vehicle id="WE_19" type="normal" route="WE_Straight" depart="19" color="1,1,1"/>
    <vehicle id="EW_19" type="normal" route="EW_Straight" depart="19" color="1,1,1"/>
    <vehicle id="A0_NS_19" type="normal" route="A0_NS" depart="19" color="1,1,1"/>
    <vehicle id="WE_20" type="kombi" route="WE_Turn_A0" depart="20" color="1,1,0"/>
    <vehicle id="EW_20" type="kombi" route="EW_Turn_A0" depart="20" color="1,1,0"/>
    <vehicle id="A0_NS_20" type="kombi" route="A0_NS" depart="20" color="1,1,0"/>
    <vehicle id="B0_SN_20" type="kombi" route="B0_SN" depart="20" color="1,1,0"/>
    <vehicle id="WE_21" type="kombi" route="WE_Straight" depart="21" color="1,1,0"/>
    <vehicle id="EW_21" type="kombi" route="EW_Straight" depart="21" color="1,1,0"/>
    <vehicle id="WE_22" type="normal" route="WE_Turn_A0" depart="22" color="1,1,1"/>
    <vehicle id="EW_22" type="normal" route="EW_Straight" depart="22" color="1,1,1"/>
    <vehicle id="B0_SN_22" type="normal" route="B0_SN" depart="22" color="1,1,1"/>
    <vehicle id="WE_23" type="normal" route="WE_Turn_B0" depart="23" color="1,1,1"/>
    <vehicle id="EW_23" type="normal" route="EW_Turn_B0" depart="23" color="1,1,1"/>
    <vehicle id="A0_NS_23" type="normal" route="A0_NS" depart="23" color="1,1,1"/>
    <vehicle id="WE_24" type="normal" route="WE_Straight" depart="24" color="1,1,1"/>
    <vehicle id="EW_24" type="normal" route="EW_Straight" depart="24" color="1,1,1"/>
    <vehicle id="A0_SN_24" type="normal" route="A0_SN" depart="24" color="1,1,1"/>
    <vehicle id="WE_25" type="truck" route="WE_Straight" depart="25" color="1,0,0"/>
    <vehicle id="EW_25" type="truck" route="EW_Turn_A0" depart="25" color="1,0,0"/>
    <vehicle id="B0_NS_25" type="truck" route="B0_NS" depart="25" color="1,0,0"/>
    <vehicle id="B0_SN_25" type="truck" route="B0_SN" depart="25" color="1,0,0"/>
    <vehicle id="WE_26" type="kombi" route="WE_Straight" depart="26" color="1,1,0"/>
    <vehicle id="EW_26" type="kombi" route="EW_Turn_B0" depart="26" color="1,1,0"/>
    <vehicle id="A0_NS_26" type="kombi" route="A0_NS" depart="26" color="1,1,0"/>
    <vehicle id="A0_SN_26" type="kombi" route="A0_SN" depart="26" color="1,1,0"/>
    <vehicle id="B0_SN_26" type="kombi" route="B0_SN" depart="26" color="1,1,0"/>
    <vehicle id="WE_27" type="kombi" route="WE_Turn_B0" depart="27" color="1,1,0"/>
    <vehicle id="EW_27" type="kombi" route="EW_Turn_A0" depart="27" color="1,1,0"/>
    <vehicle id="A0_NS_27" type="kombi" route="A0_NS" depart="27" color="1,1,0"/>
    <vehicle id="A0_SN_27" type="kombi" route="A0_SN" depart="27" color="1,1,0"/>
    <vehicle id="WE_28" type="normal" route="WE_Straight" depart="28" color="1,1,1"/>
    <vehicle id="EW_28" type="normal" route="EW_Straight" depart="28" color="1,1,1"/>
    <vehicle id="WE_29" type="kombi" route="WE_Straight" depart="29" color="1,1,0"/>
    <vehicle id="EW_29" type="kombi" route="EW_Straight" depart="29" color="1,1,0"/>
    <vehicle id="B0_SN_29" type="kombi" route="B0_SN" depart="29" color="1,1,0"/>
    <vehicle id="WE_30" type="normal" route="WE_Straight" depart="30" color="1,1,1"/>
    <vehicle id="EW_30" type="normal" route="EW_Straight" depart="30" color="1,1,1"/>
    <vehicle id="B0_NS_30" type="normal" route="B0_NS" depart="30" color="1,1,1"/>
    <vehicle id="WE_31" type="kombi" route="WE_Straight" depart="31" color="1,1,0"/>
    <vehicle id="EW_31" type="kombi" route="EW_Turn_B0" depart="31" color="1,1,0"/>
    <vehicle id="WE_32" type="normal" route="WE_Straight" depart="32" color="1,1,1"/>
    <vehicle id="EW_32" type="normal" route="EW_Straight" depart="32" color="1,1,1"/>
    <vehicle id="A0_SN_32" type="normal" route="A0_SN" depart="32" color="1,1,1"/>
    <vehicle id="WE_33" type="normal" route="WE_Turn_B0" depart="33" color="1,1,1"/>
    <vehicle id="EW_33" type="normal" route="EW_Straight" depart="33" color="1,1,1"/>
    <vehicle id="A0_SN_33" type="normal" route="A0_SN" depart="33" color="1,1,1"/>
    <vehicle id="B0_NS_33" type="normal" route="B0_NS" depart="33" color="1,1,1"/>
    <vehicle id="WE_34" type="normal" route="WE_Turn_B0" depart="34" color="1,1,1"/>
    <vehicle id="EW_34" type="normal" route="EW_Straight" depart="34" color="1,1,1"/>
    <vehicle id="B0_SN_34" type="normal" route="B0_SN" depart="34" color="1,1,1"/>
    <vehicle id="WE_35" type="normal" route="WE_Straight" depart="35" color="1,1,1"/>
    <vehicle id="EW_35" type="normal" route="EW_Straight" depart="35" color="1,1,1"/>
    <vehicle id="B0_SN_35" type="normal" route="B0_SN" depart="35" color="1,1,1"/>
    <vehicle id="WE_36" type="kombi" route="WE_Straight" depart="36" color="1,1,0"/>
    <vehicle id="EW_36" type="kombi" route="EW_Turn_A0" depart="36" color="1,1,0"/>
    <vehicle id="B0_NS_36" type="kombi" route="B0_NS" depart="36" color="1,1,0"/>
    <vehicle id="B0_SN_36" type="kombi" route="B0_SN" depart="36" color="1,1,0"/>
    <vehicle id="WE_37" type="normal" route="WE_Straight" depart="37" color="1,1,1"/>
    <vehicle id="EW_37" type="normal" route="EW_Turn_B0" depart="37" color="1,1,1"/>
    <vehicle id="B0_SN_37" type="normal" route="B0_SN" depart="37" color="1,1,1"/>
    <vehicle id="WE_38" type="normal" route="WE_Turn_B0" depart="38" color="1,1,1"/>
    <vehicle id="EW_38" type="normal" route="EW_Straight" depart="38" color="1,1,1"/>
    <vehicle id="B0_NS_38" type="normal" route="B0_NS" depart="38" color="1,1,1"/>
    <vehicle id="WE_39" type="truck" route="WE_Turn_B0" depart="39" color="1,0,0"/>
    <vehicle id="EW_39" type="truck" route="EW_Straight" depart="39" color="1,0,0"/>
    <vehicle id="B0_NS_39" type="truck" route="B0_NS" depart="39" color="1,0,0"/>
    <vehicle id="WE_40" type="mshikashika" route="WE_Straight" depart="40" color="1,0.5,0"/>
    <vehicle id="EW_40" type="mshikashika" route="EW_Turn_B0" depart="40" color="1,0.5,0"/>
    <vehicle id="B0_SN_40" type="mshikashika" route="B0_SN" depart="40" color="1,0.5,0"/>
    <vehicle id="WE_41" type="kombi" route="WE_Turn_A0" depart="41" color="1,1,0"/>
    <vehicle id="EW_41" type="kombi" route="EW_Straight" depart="41" color="1,1,0"/>
    <vehicle id="A0_SN_41" type="kombi" route="A0_SN" depart="41" color="1,1,0"/>
    <vehicle id="B0_NS_41" type="kombi" route="B0_NS" depart="41" color="1,1,0"/>
    <vehicle id="WE_42" type="normal" route="WE_Straight" depart="42" color="1,1,1"/>
    <vehicle id="EW_42" type="normal" route="EW_Straight" depart="42" color="1,1,1"/>
    <vehicle id="A0_NS_42" type="normal" route="A0_NS" depart="42" color="1,1,1"/>
    <vehicle id="A0_SN_42" type="normal" route="A0_SN" depart="42" color="1,1,1"/>
    <vehicle id="B0_NS_42" type="normal" route="B0_NS" depart="42" color="1,1,1"/>
    <vehicle id="WE_43" type="normal" route="WE_Straight" depart="43" color="1,1,1"/>
    <vehicle id="EW_43" type="normal" route="EW_Straight" depart="43" color="1,1,1"/>
    <vehicle id="A0_NS_43" type="normal" route="A0_NS" depart="43" color="1,1,1"/>
    <vehicle id="A0_SN_43" type="normal" route="A0_SN" depart="43" color="1,1,1"/>
    <vehicle id="WE_44" type="kombi" route="WE_Straight" depart="44" color="1,1,0"/>
    <vehicle id="EW_44" type="kombi" route="EW_Turn_B0" depart="44" color="1,1,0"/>
    <vehicle id="B0_NS_44" type="kombi" route="B0_NS" depart="44" color="1,1,0"/>
    <vehicle id="WE_45" type="mshikashika" route="WE_Straight" depart="45" color="1,0.5,0"/>
    <vehicle id="EW_45" type="mshikashika" route="EW_Turn_A0" depart="45" color="1,0.5,0"/>
    <vehicle id="B0_NS_45" type="mshikashika" route="B0_NS" depart="45" color="1,0.5,0"/>
    <vehicle id="WE_46" type="kombi" route="WE_Turn_A0" depart="46" color="1,1,0"/>
    <vehicle id="EW_46" type="kombi" route="EW_Turn_A0" depart="46" color="1,1,0"/>
    <vehicle id="A0_NS_46" type="kombi" route="A0_NS" depart="46" color="1,1,0"/>
    <vehicle id="B0_SN_46" type="kombi" route="B0_SN" depart="46" color="1,1,0"/>
    <vehicle id="WE_47" type="kombi" route="WE_Turn_A0" depart="47" color="1,1,0"/>
    <vehicle id="EW_47" type="kombi" route="EW_Turn_B0" depart="47" color="1,1,0"/>
    <vehicle id="A0_NS_47" type="kombi" route="A0_NS" depart="47" color="1,1,0"/>
    <vehicle id="A0_SN_47" type="kombi" route="A0_SN" depart="47" color="1,1,0"/>
    <vehicle id="WE_48" type="mshikashika" route="WE_Straight" depart="48" color="1,0.5,0"/>
    <vehicle id="EW_48" type="mshikashika" route="EW_Straight" depart="48" color="1,0.5,0"/>
    <vehicle id="WE_49" type="truck" route="WE_Straight" depart="49" color="1,0,0"/>
    <vehicle id="EW_49" type="truck" route="EW_Straight" depart="49" color="1,0,0"/>
    <vehicle id="B0_SN_49" type="truck" route="B0_SN" depart="49" color="1,0,0"/>
    <vehicle id="WE_50" type="kombi" route="WE_Straight" depart="50" color="1,1,0"/>
    <vehicle id="EW_50" type="kombi" route="EW_Straight" depart="50" color="1,1,0"/>
    <vehicle id="A0_SN_50" type="kombi" route="A0_SN" depart="50" color="1,1,0"/>
    <vehicle id="WE_51" type="normal" route="WE_Turn_A0" depart="51" color="1,1,1"/>
    <vehicle id="EW_51" type="normal" route="EW_Straight" depart="51" color="1,1,1"/>
    <vehicle id="B0_SN_51" type="normal" route="B0_SN" depart="51" color="1,1,1"/>
    <vehicle id="WE_52" type="kombi" route="WE_Straight" depart="52" color="1,1,0"/>
    <vehicle id="EW_52" type="kombi" route="EW_Straight" depart="52" color="1,1,0"/>
    <vehicle id="B0_NS_52" type="kombi" route="B0_NS" depart="52" color="1,1,0"/>
    <vehicle id="WE_53" type="kombi" route="WE_Straight" depart="53" color="1,1,0"/>
    <vehicle id="EW_53" type="kombi" route="EW_Straight" depart="53" color="1,1,0"/>
    <vehicle id="B0_SN_53" type="kombi" route="B0_SN" depart="53" color="1,1,0"/>
    <vehicle id="WE_54" type="normal" route="WE_Turn_A0" depart="54" color="1,1,1"/>
    <vehicle id="EW_54" type="normal" route="EW_Straight" depart="54" color="1,1,1"/>
    <vehicle id="A0_SN_54" type="normal" route="A0_SN" depart="54" color="1,1,1"/>
    <vehicle id="B0_SN_54" type="normal" route="B0_SN" depart="54" color="1,1,1"/>
    <vehicle id="WE_55" type="normal" route="WE_Turn_A0" depart="55" color="1,1,1"/>
    <vehicle id="EW_55" type="normal" route="EW_Straight" depart="55" color="1,1,1"/>
    <vehicle id="A0_SN_55" type="normal" route="A0_SN" depart="55" color="1,1,1"/>
    <vehicle id="B0_NS_55" type="normal" route="B0_NS" depart="55" color="1,1,1"/>
    <vehicle id="B0_SN_55" type="normal" route="B0_SN" depart="55" color="1,1,1"/>
    <vehicle id="WE_56" type="normal" route="WE_Straight" depart="56" color="1,1,1"/>
    <vehicle id="EW_56" type="normal" route="EW_Straight" depart="56" color="1,1,1"/>
    <vehicle id="A0_NS_56" type="normal" route="A0_NS" depart="56" color="1,1,1"/>
    <vehicle id="B0_NS_56" type="normal" route="B0_NS" depart="56" color="1,1,1"/>
    <vehicle id="WE_57" type="normal" route="WE_Turn_B0" depart="57" color="1,1,1"/>
    <vehicle id="EW_57" type="normal" route="EW_Straight" depart="57" color="1,1,1"/>
    <vehicle id="A0_SN_57" type="normal" route="A0_SN" depart="57" color="1,1,1"/>
    <vehicle id="WE_58" type="truck" route="WE_Straight" depart="58" color="1,0,0"/>
    <vehicle id="EW_58" type="truck" route="EW_Straight" depart="58" color="1,0,0"/>
    <vehicle id="A0_SN_58" type="truck" route="A0_SN" depart="58" color="1,0,0"/>
    <vehicle id="B0_SN_58" type="truck" route="B0_SN" depart="58" color="1,0,0"/>
    <vehicle id="WE_59" type="kombi" route="WE_Straight" depart="59" color="1,1,0"/>
    <vehicle id="EW_59" type="kombi" route="EW_Straight" depart="59" color="1,1,0"/>
    <vehicle id="B0_NS_59" type="kombi" route="B0_NS" depart="59" color="1,1,0"/>
    <vehicle id="WE_60" type="normal" route="WE_Straight" depart="60" color="1,1,1"/>
    <vehicle id="EW_60" type="normal" route="EW_Turn_A0" depart="60" color="1,1,1"/>
    <vehicle id="B0_NS_60" type="normal" route="B0_NS" depart="60" color="1,1,1"/>
    <vehicle id="WE_61" type="normal" route="WE_Turn_A0" depart="61" color="1,1,1"/>
    <vehicle id="EW_61" type="normal" route="EW_Straight" depart="61" color="1,1,1"/>
    <vehicle id="B0_SN_61" type="normal" route="B0_SN" depart="61" color="1,1,1"/>
    <vehicle id="WE_62" type="normal" route="WE_Turn_B0" depart="62" color="1,1,1"/>
    <vehicle id="EW_62" type="normal" route="EW_Turn_A0" depart="62" color="1,1,1"/>
    <vehicle id="WE_63" type="mshikashika" route="WE_Straight" depart="63" color="1,0.5,0"/>
    <vehicle id="EW_63" type="mshikashika" route="EW_Straight" depart="63" color="1,0.5,0"/>
    <vehicle id="A0_SN_63" type="mshikashika" route="A0_SN" depart="63" color="1,0.5,0"/>
    <vehicle id="B0_NS_63" type="mshikashika" route="B0_NS" depart="63" color="1,0.5,0"/>
    <vehicle id="WE_64" type="mshikashika" route="WE_Turn_B0" depart="64" color="1,0.5,0"/>
    <vehicle id="EW_64" type="mshikashika" route="EW_Turn_B0" depart="64" color="1,0.5,0"/>
    <vehicle id="A0_SN_64" type="mshikashika" route="A0_SN" depart="64" color="1,0.5,0"/>
    <vehicle id="B0_NS_64" type="mshikashika" route="B0_NS" depart="64" color="1,0.5,0"/>
    <vehicle id="B0_SN_64" type="mshikashika" route="B0_SN" depart="64" color="1,0.5,0"/>
    <vehicle id="WE_65" type="truck" route="WE_Straight" depart="65" color="1,0,0"/>
    <vehicle id="EW_65" type="truck" route="EW_Straight" depart="65" color="1,0,0"/>
    <vehicle id="A0_NS_65" type="truck" route="A0_NS" depart="65" color="1,0,0"/>
    <vehicle id="B0_NS_65" type="truck" route="B0_NS" depart="65" color="1,0,0"/>
    <vehicle id="B0_SN_65" type="truck" route="B0_SN" depart="65" color="1,0,0"/>
    <vehicle id="WE_66" type="normal" route="WE_Straight" depart="66" color="1,1,1"/>
    <vehicle id="EW_66" type="normal" route="EW_Straight" depart="66" color="1,1,1"/>
    <vehicle id="A0_NS_66" type="normal" route="A0_NS" depart="66" color="1,1,1"/>
    <vehicle id="A0_SN_66" type="normal" route="A0_SN" depart="66" color="1,1,1"/>
    <vehicle id="B0_SN_66" type="normal" route="B0_SN" depart="66" color="1,1,1"/>
    <vehicle id="WE_67" type="mshikashika" route="WE_Straight" depart="67" color="1,0.5,0"/>
    <vehicle id="EW_67" type="mshikashika" route="EW_Turn_A0" depart="67" color="1,0.5,0"/>
    <vehicle id="A0_NS_67" type="mshikashika" route="A0_NS" depart="67" color="1,0.5,0"/>
    <vehicle id="WE_68" type="normal" route="WE_Straight" depart="68" color="1,1,1"/>
    <vehicle id="EW_68" type="normal" route="EW_Straight" depart="68" color="1,1,1"/>
    <vehicle id="A0_NS_68" type="normal" route="A0_NS" depart="68" color="1,1,1"/>
    <vehicle id="B0_NS_68" type="normal" route="B0_NS" depart="68" color="1,1,1"/>
    <vehicle id="WE_69" type="normal" route="WE_Straight" depart="69" color="1,1,1"/>
    <vehicle id="EW_69" type="normal" route="EW_Turn_A0" depart="69" color="1,1,1"/>
    <vehicle id="B0_SN_69" type="normal" route="B0_SN" depart="69" color="1,1,1"/>
    <vehicle id="WE_70" type="kombi" route="WE_Straight" depart="70" color="1,1,0"/>
    <vehicle id="EW_70" type="kombi" route="EW_Turn_A0" depart="70" color="1,1,0"/>
    <vehicle id="A0_NS_70" type="kombi" route="A0_NS" depart="70" color="1,1,0"/>
    <vehicle id="WE_71" type="truck" route="WE_Straight" depart="71" color="1,0,0"/>
    <vehicle id="EW_71" type="truck" route="EW_Turn_B0" depart="71" color="1,0,0"/>
    <vehicle id="A0_NS_71" type="truck" route="A0_NS" depart="71" color="1,0,0"/>
    <vehicle id="A0_SN_71" type="truck" route="A0_SN" depart="71" color="1,0,0"/>
    <vehicle id="B0_NS_71" type="truck" route="B0_NS" depart="71" color="1,0,0"/>
    <vehicle id="WE_72" type="kombi" route="WE_Straight" depart="72" color="1,1,0"/>
    <vehicle id="EW_72" type="kombi" route="EW_Straight" depart="72" color="1,1,0"/>
    <vehicle id="A0_NS_72" type="kombi" route="A0_NS" depart="72" color="1,1,0"/>
    <vehicle id="WE_73" type="truck" route="WE_Straight" depart="73" color="1,0,0"/>
    <vehicle id="EW_73" type="truck" route="EW_Straight" depart="73" color="1,0,0"/>
    <vehicle id="A0_SN_73" type="truck" route="A0_SN" depart="73" color="1,0,0"/>
    <vehicle id="B0_NS_73" type="truck" route="B0_NS" depart="73" color="1,0,0"/>
    <vehicle id="WE_74" type="normal" route="WE_Turn_B0" depart="74" color="1,1,1"/>
    <vehicle id="EW_74" type="normal" route="EW_Straight" depart="74" color="1,1,1"/>
    <vehicle id="A0_NS_74" type="normal" route="A0_NS" depart="74" color="1,1,1"/>
    <vehicle id="WE_75" type="normal" route="WE_Straight" depart="75" color="1,1,1"/>
    <vehicle id="EW_75" type="normal" route="EW_Straight" depart="75" color="1,1,1"/>
    <vehicle id="WE_76" type="normal" route="WE_Straight" depart="76" color="1,1,1"/>
    <vehicle id="EW_76" type="normal" route="EW_Straight" depart="76" color="1,1,1"/>
    <vehicle id="WE_77" type="kombi" route="WE_Straight" depart="77" color="1,1,0"/>
    <vehicle id="EW_77" type="kombi" route="EW_Straight" depart="77" color="1,1,0"/>
    <vehicle id="WE_78" type="normal" route="WE_Turn_A0" depart="78" color="1,1,1"/>
    <vehicle id="EW_78" type="normal" route="EW_Turn_A0" depart="78" color="1,1,1"/>
    <vehicle id="A0_NS_78" type="normal" route="A0_NS" depart="78" color="1,1,1"/>
    <vehicle id="B0_NS_78" type="normal" route="B0_NS" depart="78" color="1,1,1"/>
    <vehicle id="B0_SN_78" type="normal" route="B0_SN" depart="78" color="1,1,1"/>
    <vehicle id="WE_79" type="kombi" route="WE_Straight" depart="79" color="1,1,0"/>
    <vehicle id="EW_79" type="kombi" route="EW_Straight" depart="79" color="1,1,0"/>
    <vehicle id="B0_NS_79" type="kombi" route="B0_NS" depart="79" color="1,1,0"/>
    <vehicle id="B0_SN_79" type="kombi" route="B0_SN" depart="79" color="1,1,0"/>
    <vehicle id="WE_80" type="kombi" route="WE_Turn_A0" depart="80" color="1,1,0"/>
    <vehicle id="EW_80" type="kombi" route="EW_Turn_B0" depart="80" color="1,1,0"/>
    <vehicle id="A0_NS_80" type="kombi" route="A0_NS" depart="80" color="1,1,0"/>
    <vehicle id="B0_SN_80" type="kombi" route="B0_SN" depart="80" color="1,1,0"/>
    <vehicle id="WE_81" type="mshikashika" route="WE_Straight" depart="81" color="1,0.5,0"/>
    <vehicle id="EW_81" type="mshikashika" route="EW_Turn_A0" depart="81" color="1,0.5,0"/>
    <vehicle id="WE_82" type="kombi" route="WE_Turn_B0" depart="82" color="1,1,0"/>
    <vehicle id="EW_82" type="kombi" route="EW_Turn_B0" depart="82" color="1,1,0"/>
    <vehicle id="B0_NS_82" type="kombi" route="B0_NS" depart="82" color="1,1,0"/>
    <vehicle id="B0_SN_82" type="kombi" route="B0_SN" depart="82" color="1,1,0"/>
    <vehicle id="WE_83" type="normal" route="WE_Turn_B0" depart="83" color="1,1,1"/>
    <vehicle id="EW_83" type="normal" route="EW_Turn_A0" depart="83" color="1,1,1"/>
    <vehicle id="WE_84" type="kombi" route="WE_Straight" depart="84" color="1,1,0"/>
    <vehicle id="EW_84" type="kombi" route="EW_Turn_A0" depart="84" color="1,1,0"/>
    <vehicle id="B0_NS_84" type="kombi" route="B0_NS" depart="84" color="1,1,0"/>
    <vehicle id="WE_85" type="kombi" route="WE_Straight" depart="85" color="1,1,0"/>
    <vehicle id="EW_85" type="kombi" route="EW_Straight" depart="85" color="1,1,0"/>
    <vehicle id="WE_86" type="kombi" route="WE_Straight" depart="86" color="1,1,0"/>
    <vehicle id="EW_86" type="kombi" route="EW_Straight" depart="86" color="1,1,0"/>
    <vehicle id="B0_NS_86" type="kombi" route="B0_NS" depart="86" color="1,1,0"/>
    <vehicle id="WE_87" type="kombi" route="WE_Straight" depart="87" color="1,1,0"/>
    <vehicle id="EW_87" type="kombi" route="EW_Turn_A0" depart="87" color="1,1,0"/>
    <vehicle id="A0_NS_87" type="kombi" route="A0_NS" depart="87" color="1,1,0"/>
    <vehicle id="B0_NS_87" type="kombi" route="B0_NS" depart="87" color="1,1,0"/>
    <vehicle id="WE_88" type="kombi" route="WE_Straight" depart="88" color="1,1,0"/>
    <vehicle id="EW_88" type="kombi" route="EW_Straight" depart="88" color="1,1,0"/>
    <vehicle id="A0_NS_88" type="kombi" route="A0_NS" depart="88" color="1,1,0"/>
    <vehicle id="B0_NS_88" type="kombi" route="B0_NS" depart="88" color="1,1,0"/>
    <vehicle id="WE_89" type="mshikashika" route="WE_Straight" depart="89" color="1,0.5,0"/>
    <vehicle id="EW_89" type="mshikashika" route="EW_Straight" depart="89" color="1,0.5,0"/>
    <vehicle id="WE_91" type="normal" route="WE_Turn_A0" depart="91" color="1,1,1"/>
    <vehicle id="EW_94" type="normal" route="EW_Straight" depart="94" color="1,1,1"/>
    <vehicle id="EW_97" type="normal" route="EW_Straight" depart="97" color="1,1,1"/>
    <vehicle id="WE_98" type="normal" route="WE_Straight" depart="98" color="1,1,1"/>
    <vehicle id="EW_99" type="mshikashika" route="EW_Turn_A0" depart="99" color="1,0.5,0"/>
    <vehicle id="EW_100" type="normal" route="EW_Straight" depart="100" color="1,1,1"/>
    <vehicle id="EW_101" type="normal" route="EW_Turn_B0" depart="101" color="1,1,1"/>
    <vehicle id="WE_102" type="kombi" route="WE_Straight" depart="102" color="1,1,0"/>
    <vehicle id="EW_103" type="normal" route="EW_Straight" depart="103" color="1,1,1"/>
    <vehicle id="EW_105" type="truck" route="EW_Turn_B0" depart="105" color="1,0,0"/>
    <vehicle id="EW_108" type="mshikashika" route="EW_Turn_B0" depart="108" color="1,0.5,0"/>
    <vehicle id="EW_109" type="normal" route="EW_Straight" depart="109" color="1,1,1"/>
    <vehicle id="WE_110" type="normal" route="WE_Straight" depart="110" color="1,1,1"/>
    <vehicle id="EW_110" type="normal" route="EW_Straight" depart="110" color="1,1,1"/>
    <vehicle id="EW_112" type="normal" route="EW_Turn_B0" depart="112" color="1,1,1"/>
    <vehicle id="EW_113" type="normal" route="EW_Straight" depart="113" color="1,1,1"/>
    <vehicle id="WE_114" type="normal" route="WE_Turn_B0" depart="114" color="1,1,1"/>
    <vehicle id="EW_115" type="normal" route="EW_Straight" depart="115" color="1,1,1"/>
    <vehicle id="WE_116" type="kombi" route="WE_Straight" depart="116" color="1,1,0"/>
    <vehicle id="A0_NS_116" type="kombi" route="A0_NS" depart="116" color="1,1,0"/>
    <vehicle id="B0_NS_116" type="kombi" route="B0_NS" depart="116" color="1,1,0"/>
    <vehicle id="EW_118" type="truck" route="EW_Turn_A0" depart="118" color="1,0,0"/>
    <vehicle id="A0_NS_118" type="truck" route="A0_NS" depart="118" color="1,0,0"/>
    <vehicle id="WE_120" type="normal" route="WE_Turn_B0" depart="120" color="1,1,1"/>
    <vehicle id="EW_120" type="normal" route="EW_Straight" depart="120" color="1,1,1"/>
    <vehicle id="A0_SN_121" type="normal" route="A0_SN" depart="121" color="1,1,1"/>
    <vehicle id="B0_NS_121" type="normal" route="B0_NS" depart="121" color="1,1,1"/>
    <vehicle id="A0_NS_122" type="normal" route="A0_NS" depart="122" color="1,1,1"/>
    <vehicle id="WE_123" type="normal" route="WE_Straight" depart="123" color="1,1,1"/>
    <vehicle id="EW_123" type="normal" route="EW_Straight" depart="123" color="1,1,1"/>
    <vehicle id="WE_124" type="normal" route="WE_Straight" depart="124" color="1,1,1"/>
    <vehicle id="WE_125" type="normal" route="WE_Straight" depart="125" color="1,1,1"/>
    <vehicle id="WE_126" type="mshikashika" route="WE_Straight" depart="126" color="1,0.5,0"/>
    <vehicle id="EW_126" type="mshikashika" route="EW_Straight" depart="126" color="1,0.5,0"/>
    <vehicle id="WE_127" type="normal" route="WE_Straight" depart="127" color="1,1,1"/>
    <vehicle id="EW_127" type="normal" route="EW_Straight" depart="127" color="1,1,1"/>
    <vehicle id="EW_128" type="mshikashika" route="EW_Turn_B0" depart="128" color="1,0.5,0"/>
    <vehicle id="B0_NS_128" type="mshikashika" route="B0_NS" depart="128" color="1,0.5,0"/>
    <vehicle id="WE_129" type="kombi" route="WE_Turn_A0" depart="129" color="1,1,0"/>
    <vehicle id="EW_130" type="normal" route="EW_Straight" depart="130" color="1,1,1"/>