<routes>
        <!-- 1. Define Driver Behaviors (The "Harare Mix") -->
        
        <!-- Normal Driver: Imperfect (sigma=0.5), tries to follow rules -->
        <vType id="normal" accel="2.0" decel="4.5" sigma="0.5" length="5" minGap="2.5" maxSpeed="15" guiShape="passenger"/>
        
        <!-- THE KOMBI: Aggressive, tailgates (minGap 0.5), speeds (factor 1.5), weaves lanes -->
        <vType id="kombi" accel="4.5" decel="7.0" sigma="0.9" length="5" minGap="0.5" maxSpeed="25" speedFactor="1.5" 
               laneChangeModel="SL2015" lcStrategic="10.0" lcSpeedGain="10.0" lcCooperative="0.0" lcPushy="1.0" guiShape="bus"/>
        
        <!-- THE HEAVY TRUCK: Slow acceleration, blocks traffic -->
        <vType id="truck" accel="0.8" decel="3.0" sigma="0.2" length="10" minGap="4.0" maxSpeed="8" guiShape="truck"/>

        <!-- 2. Define Routes -->
        <!-- North Incoming -->
        <route id="N_Straight" edges="top0A0 A0bottom0"/>
        <route id="N_Left"     edges="top0A0 A0left0"/>
        <route id="N_Right"    edges="top0A0 A0right0"/>

        <!-- South Incoming -->
        <route id="S_Straight" edges="bottom0A0 A0top0"/>
        <route id="S_Left"     edges="bottom0A0 A0right0"/>
        <route id="S_Right"    edges="bottom0A0 A0left0"/>

        <!-- East Incoming -->
        <route id="E_Straight" edges="right0A0 A0left0"/>
        <route id="E_Left"     edges="right0A0 A0bottom0"/>
        <route id="E_Right"    edges="right0A0 A0top0"/>

        <!-- West Incoming -->
        <route id="W_Straight" edges="left0A0 A0right0"/>
        <route id="W_Left"     edges="left0A0 A0top0"/>
        <route id="W_Right"    edges="left0A0 A0bottom0"/>
        
    <vehicle id="S_0" type="kombi" route="S_Left" depart="0" color="1,1,0"/>
    <vehicle id="S_2" type="kombi" route="S_Right" depart="2" color="1,1,0"/>
    <vehicle id="S_3" type="kombi" route="S_Straight" depart="3" color="1,1,0"/>
    <vehicle id="W_3" type="kombi" route="W_Straight" depart="3" color="1,1,0"/>
    <vehicle id="N_4" type="kombi" route="N_Straight" depart="4" color="1,1,0"/>
    <vehicle id="S_4" type="kombi" route="S_Straight" depart="4" color="1,1,0"/>
    <vehicle id="N_6" type="normal" route="N_Left" depart="6" color="1,1,1"/>
    <vehicle id="N_13" type="normal" route="N_Straight" depart="13" color="1,1,1"/>
    <vehicle id="S_14" type="kombi" route="S_Left" depart="14" color="1,1,0"/>
    <vehicle id="E_16" type="normal" route="E_Straight" depart="16" color="1,1,1"/>
    <vehicle id="N_18" type="kombi" route="N_Straight" depart="18" color="1,1,0"/>
    <vehicle id="N_19" type="truck" route="N_Straight" depart="19" color="1,0,0"/>
    <vehicle id="S_20" type="normal" route="S_Straight" depart="20" color="1,1,1"/>
    <vehicle id="N_21" type="normal" route="N_Straight" depart="21" color="1,1,1"/>
    <vehicle id="S_21" type="normal" route="S_Straight" depart="21" color="1,1,1"/>
    <vehicle id="N_22" type="normal" route="N_Straight" depart="22" color="1,1,1"/>
    <vehicle id="S_22" type="normal" route="S_Right" depart="22" color="1,1,1"/>
    <vehicle id="N_23" type="kombi" route="N_Straight" depart="23" color="1,1,0"/>
    <vehicle id="S_24" type="kombi" route="S_Left" depart="24" color="1,1,0"/>
    <vehicle id="W_26" type="normal" route="W_Straight" depart="26" color="1,1,1"/>
    <vehicle id="S_27" type="normal" route="S_Left" depart="27" color="1,1,1"/>
    <vehicle id="N_30" type="kombi" route="N_Right" depart="30" color="1,1,0"/>
    <vehicle id="S_30" type="kombi" route="S_Straight" depart="30" color="1,1,0"/>
    <vehicle id="W_31" type="kombi" route="W_Straight" depart="31" color="1,1,0"/>
    <vehicle id="N_32" type="kombi" route="N_Straight" depart="32" color="1,1,0"/>
    <vehicle id="N_34" type="normal" route="N_Straight" depart="34" color="1,1,1"/>
    <vehicle id="N_35" type="kombi" route="N_Left" depart="35" color="1,1,0"/>
    <vehicle id="S_35" type="kombi" route="S_Straight" depart="35" color="1,1,0"/>
    <vehicle id="S_36" type="kombi" route="S_Straight" depart="36" color="1,1,0"/>
    <vehicle id="W_36" type="kombi" route="W_Straight" depart="36" color="1,1,0"/>
    <vehicle id="N_37" type="kombi" route="N_Straight" depart="37" color="1,1,0"/>
    <vehicle id="S_37" type="kombi" route="S_Straight" depart="37" color="1,1,0"/>
    <vehicle id="N_38" type="normal" route="N_Left" depart="38" color="1,1,1"/>
    <vehicle id="S_40" type="normal" route="S_Straight" depart="40" color="1,1,1"/>
    <vehicle id="N_42" type="normal" route="N_Straight" depart="42" color="1,1,1"/>
    <vehicle id="S_42" type="normal" route="S_Straight" depart="42" color="1,1,1"/>
    <vehicle id="W_44" type="kombi" route="W_Straight" depart="44" color="1,1,0"/>
    <vehicle id="N_45" type="normal" route="N_Straight" depart="45" color="1,1,1"/>
    <vehicle id="N_48" type="normal" route="N_Right" depart="48" color="1,1,1"/>
    <vehicle id="N_49" type="kombi" route="N_Right" depart="49" color="1,1,0"/>
    <vehicle id="S_50" type="kombi" route="S_Straight" depart="50" color="1,1,0"/>
    <vehicle id="N_52" type="kombi" route="N_Straight" depart="52" color="1,1,0"/>
    <vehicle id="S_53" type="normal" route="S_Straight" depart="53" color="1,1,1"/>
    <vehicle id="N_54" type="kombi" route="N_Straight" depart="54" color="1,1,0"/>
    <vehicle id="S_57" type="normal" route="S_Straight" depart="57" color="1,1,1"/>
    <vehicle id="S_58" type="normal" route="S_Straight" depart="58" color="1,1,1"/>
    <vehicle id="N_61" type="kombi" route="N_Left" depart="61" color="1,1,0"/>
    <vehicle id="N_62" type="normal" route="N_Left" depart="62" color="1,1,1"/>
    <vehicle id="S_66" type="normal" route="S_Left" depart="66" color="1,1,1"/>
    <vehicle id="N_67" type="kombi" route="N_Left" depart="67" color="1,1,0"/>
    <vehicle id="N_68" type="normal" route="N_Straight" depart="68" color="1,1,1"/>
    <vehicle id="E_69" type="normal" route="E_Straight" depart="69" color="1,1,1"/>
    <vehicle id="N_70" type="normal" route="N_Straight" depart="70" color="1,1,1"/>
    <vehicle id="S_70" type="normal" route="S_Straight" depart="70" color="1,1,1"/>
    <vehicle id="S_71" type="truck" route="S_Straight" depart="71" color="1,0,0"/>
    <vehicle id="N_72" type="normal" route="N_Straight" depart="72" color="1,1,1"/>
    <vehicle id="N_73" type="normal" route="N_Right" depart="73" color="1,1,1"/>
    <vehicle id="W_73" type="normal" route="W_Straight" depart="73" color="1,1,1"/>
    <vehicle id="S_77" type="normal" route="S_Straight" depart="77" color="1,1,1"/>
    <vehicle id="N_78" type="normal" route="N_Straight" depart="78" color="1,1,1"/>
    <vehicle id="S_78" type="normal" route="S_Straight" depart="78" color="1,1,1"/>
    <vehicle id="S_80" type="normal" route="S_Left" depart="80" color="1,1,1"/>
    <vehicle id="S_81" type="normal" route="S_Straight" depart="81" color="1,1,1"/>
    <vehicle id="N_82" type="kombi" route="N_Straight" depart="82" color="1,1,0"/>
    <vehicle id="N_83" type="normal" route="N_Right" depart="83" color="1,1,1"/>
    <vehicle id="S_84" type="truck" route="S_Straight" depart="84" color="1,0,0"/>
    <vehicle id="S_85" type="kombi" route="S_Left" depart="85" color="1,1,0"/>
    <vehicle id="N_86" type="kombi" route="N_Straight" depart="86" color="1,1,0"/>
    <vehicle id="S_86" type="kombi" route="S_Right" depart="86" color="1,1,0"/>
    <vehicle id="S_87" type="normal" route="S_Left" depart="87" color="1,1,1"/>
    <vehicle id="S_93" type="kombi" route="S_Straight" depart="93" color="1,1,0"/>
    <vehicle id="W_93" type="kombi" route="W_Straight" depart="93" color="1,1,0"/>
    <vehicle id="S_94" type="truck" route="S_Straight" depart="94" color="1,0,0"/>
    <vehicle id="E_95" type="normal" route="E_Straight" depart="95" color="1,1,1"/>
    <vehicle id="S_96" type="kombi" route="S_Left" depart="96" color="1,1,0"/>
    <vehicle id="S_98" type="kombi" route="S_Right" depart="98" color="1,1,0"/>
    <vehicle id="N_101" type="normal" route="N_Straight" depart="101" color="1,1,1"/>
    <vehicle id="N_102" type="truck" route="N_Straight" depart="102" color="1,0,0"/>
    <vehicle id="S_103" type="kombi" route="S_Right" depart="103" color="1,1,0"/>
    <vehicle id="E_103" type="kombi" route="E_Straight" depart="103" color="1,1,0"/>
    <vehicle id="S_108" type="truck" route="S_Left" depart="108" color="1,0,0"/>
    <vehicle id="S_109" type="kombi" route="S_Straight" depart="109" color="1,1,0"/>
    <vehicle id="N_110" type="truck" route="N_Straight" depart="110" color="1,0,0"/>
    <vehicle id="N_113" type="truck" route="N_Straight" depart="113" color="1,0,0"/>
    <vehicle id="N_116" type="truck" route="N_Left" depart="116" color="1,0,0"/>
    <vehicle id="S_116" type="truck" route="S_Straight" depart="116" color="1,0,0"/>
    <vehicle id="W_116" type="truck" route="W_Straight" depart="116" color="1,0,0"/>
    <vehicle id="N_117" type="kombi" route="N_Straight" depart="117" color="1,1,0"/>
    <vehicle id="N_118" type="normal" route="N_Straight" depart="118" color="1,1,1"/>
    <vehicle id="S_118" type="normal" route="S_Straight" depart="118" color="1,1,1"/>
    <vehicle id="S_119" type="normal" route="S_Straight" depart="119" color="1,1,1"/>
    <vehicle id="S_121" type="normal" route="S_Straight" depart="121" color="1,1,1"/>
    <vehicle id="E_122" type="normal" route="E_Straight" depart="122" color="1,1,1"/>
    <vehicle id="N_123" type="kombi" route="N_Straight" depart="123" color="1,1,0"/>
    <vehicle id="N_124" type="kombi" route="N_Straight" depart="124" color="1,1,0"/>
    <vehicle id="S_126" type="normal" route="S_Left" depart="126" color="1,1,1"/>
    <vehicle id="N_130" type="normal" route="N_Straight" depart="130" color="1,1,1"/>
    <vehicle id="N_131" type="kombi" route="N_Straight" depart="131" color="1,1,0"/>
    <vehicle id="S_131" type="kombi" route="S_Straight" depart="131" color="1,1,0"/>
    <vehicle id="N_134" type="normal" route="N_Straight" depart="134" color="1,1,1"/>
    <vehicle id="N_135" type="normal" route="N_Straight" depart="135" color="1,1,1"/>
    <vehicle id="S_135" type="normal" route="S_Straight" depart="135" color="1,1,1"/>
    <vehicle id="N_137" type="normal" route="N_Straight" depart="137" color="1,1,1"/>
    <vehicle id="S_137" type="normal" route="S_Right" depart="137" color="1,1,1"/>
    <vehicle id="S_138" type="kombi" route="S_Straight" depart="138" color="1,1,0"/>
    <vehicle id="E_138" type="kombi" route="E_Straight" depart="138" color="1,1,0"/>
    <vehicle id="W_138" type="kombi" route="W_Straight" depart="138" color="1,1,0"/>
    <vehicle id="S_140" type="kombi" route="S_Straight" depart="140" color="1,1,0"/>
    <vehicle id="N_141" type="kombi" route="N_Left" depart="141" color="1,1,0"/>
    <vehicle id="E_143" type="normal" route="E_Straight" depart="143" color="1,1,1"/>
    <vehicle id="N_145" type="normal" route="N_Left" depart="145" color="1,1,1"/>
    <vehicle id="N_146" type="kombi" route="N_Right" depart="146" color="1,1,0"/>
    <vehicle id="S_147" type="normal" route="S_Straight" depart="147" color="1,1,1"/>
    <vehicle id="S_148" type="truck" route="S_Left" depart="148" color="1,0,0"/>
    <vehicle id="N_149" type="normal" route="N_Straight" depart="149" color="1,1,1"/>
    <vehicle id="E_150" type="normal" route="E_Straight" depart="150" color="1,1,1"/>
    <vehicle id="W_151" type="kombi" route="W_Straight" depart="151" color="1,1,0"/>
    <vehicle id="N_152" type="normal" route="N_Left" depart="152" color="1,1,1"/>
    <vehicle id="S_152" type="normal" route="S_Straight" depart="152" color="1,1,1"/>
    <vehicle id="N_153" type="normal" route="N_Straight" depart="153" color="1,1,1"/>
    <vehicle id="S_154" type="normal" route="S_Straight" depart="154" color="1,1,1"/>
    <vehicle id="N_156" type="normal" route="N_Left" depart="156" color="1,1,1"/>
    <vehicle id="S_156" type="normal" route="S_Straight" depart="156" color="1,1,1"/>
    <vehicle id="N_157" type="normal" route="N_Straight" depart="157" color="1,1,1"/>
    <vehicle id="S_157" type="normal" route="S_Right" depart="157" color="1,1,1"/>
    <vehicle id="S_158" type="normal" route="S_Straight" depart="158" color="1,1,1"/>
    <vehicle id="W_160" type="kombi" route="W_Straight" depart="160" color="1,1,0"/>
    <vehicle id="N_161" type="kombi" route="N_Left" depart="161" color="1,1,0"/>
    <vehicle id="S_162" type="normal" route="S_Straight" depart="162" color="1,1,1"/>
    <vehicle id="S_164" type="kombi" route="S_Left" depart="164" color="1,1,0"/>
    <vehicle id="N_166" type="normal" route="N_Left" depart="166" color="1,1,1"/>
    <vehicle id="S_166" type="normal" route="S_Left" depart="166" color="1,1,1"/>
    <vehicle id="S_167" type="kombi" route="S_Straight" depart="167" color="1,1,0"/>
    <vehicle id="S_169" type="normal" route="S_Straight" depart="169" color="1,1,1"/>
    <vehicle id="N_171" type="kombi" route="N_Straight" depart="171" color="1,1,0"/>
    <vehicle id="N_173" type="normal" route="N_Straight" depart="173" color="1,1,1"/>
    <vehicle id="S_173" type="normal" route="S_Right" depart="173" color="1,1,1"/>
    <vehicle id="N_176" type="kombi" route="N_Straight" depart="176" color="1,1,0"/>
    <vehicle id="N_178" type="normal" route="N_Straight" depart="178" color="1,1,1"/>
    <vehicle id="S_178" type="normal" route="S_Straight" depart="178" color="1,1,1"/>
    <vehicle id="W_178" type="normal" route="W_Straight" depart="178" color="1,1,1"/>
    <vehicle id="S_180" type="truck" route="S_Left" depart="180" color="1,0,0"/>
    <vehicle id="S_181" type="normal" route="S_Straight" depart="181" color="1,1,1"/>
    <vehicle id="S_182" type="normal" route="S_Straight" depart="182" color="1,1,1"/>
    <vehicle id="N_183" type="normal" route="N_Straight" depart="183" color="1,1,1"/>
    <vehicle id="S_183" type="normal" route="S_Straight" depart="183" color="1,1,1"/>
    <vehicle id="S_185" type="normal" route="S_Left" depart="185" color="1,1,1"/>
    <vehicle id="N_186" type="normal" route="N_Right" depart="186" color="1,1,1"/>
    <vehicle id="S_186" type="normal" route="S_Straight" depart="186" color="1,1,1"/>
    <vehicle id="N_187" type="kombi" route="N_Right" depart="187" color="1,1,0"/>
    <vehicle id="N_188" type="normal" route="N_Left" depart="188" color="1,1,1"/>
    <vehicle id="W_188" type="normal" route="W_Straight" depart="188" color="1,1,1"/>
    <vehicle id="S_191" type="normal" route="S_Straight" depart="191" color="1,1,1"/>
    <vehicle id="S_192" type="normal" route="S_Straight" depart="192" color="1,1,1"/>
    <vehicle id="N_194" type="normal" route="N_Straight" depart="194" color="1,1,1"/>
    <vehicle id="S_194" type="normal" route="S_Straight" depart="194" color="1,1,1"/>
    <vehicle id="S_195" type="normal" route="S_Left" depart="195" color="1,1,1"/>
    <vehicle id="E_195" type="normal" route="E_Straight" depart="195" color="1,1,1"/>
    <vehicle id="N_197" type="truck" route="N_Straight" depart="197" color="1,0,0"/>
    <vehicle id="S_197" type="truck" route="S_Straight" depart="197" color="1,0,0"/>
    <vehicle id="S_198" type="kombi" route="S_Left" depart="198" color="1,1,0"/>
    <vehicle id="S_199" type="normal" route="S_Left" depart="199" color="1,1,1"/>
    <vehicle id="S_201" type="truck" route="S_Straight" depart="201" color="1,0,0"/>
    <vehicle id="N_202" type="normal" route="N_Straight" depart="202" color="1,1,1"/>
    <vehicle id="S_202" type="normal" route="S_Straight" depart="202" color="1,1,1"/>
    <vehicle id="S_203" type="normal" route="S_Straight" depart="203" color="1,1,1"/>
    <vehicle id="N_204" type="kombi" route="N_Straight" depart="204" color="1,1,0"/>
    <vehicle id="S_204" type="kombi" route="S_Straight" depart="204" color="1,1,0"/>
    <vehicle id="S_205" type="kombi" route="S_Straight" depart="205" color="1,1,0"/>
    <vehicle id="E_205" type="kombi" route="E_Straight" depart="205" color="1,1,0"/>
    <vehicle id="S_206" type="normal" route="S_Straight" depart="206" color="1,1,1"/>
    <vehicle id="N_207" type="normal" route="N_Straight" depart="207" color="1,1,1"/>
    <vehicle id="E_207" type="normal" route="E_Straight" depart="207" color="1,1,1"/>
    <vehicle id="S_208" type="normal" route="S_Straight" depart="208" color="1,1,1"/>
    <vehicle id="N_209" type="kombi" route="N_Straight" depart="209" color="1,1,0"/>
    <vehicle id="E_209" type="kombi" route="E_Straight" depart="209" color="1,1,0"/>
    <vehicle id="N_210" type="normal" route="N_Straight" depart="210" color="1,1,1"/>
    <vehicle id="S_210" type="normal" route="S_Right" depart="210" color="1,1,1"/>
    <vehicle id="N_212" type="normal" route="N_Straight" depart="212" color="1,1,1"/>
    <vehicle id="S_214" type="normal" route="S_Straight" depart="214" color="1,1,1"/>
    <vehicle id="N_215" type="kombi" route="N_Right" depart="215" color="1,1,0"/>
    <vehicle id="E_215" type="kombi" route="E_Straight" depart="215" color="1,1,0"/>
    <vehicle id="W_215" type="kombi" route="W_Straight" depart="215" color="1,1,0"/>
    <vehicle id="S_216" type="truck" route="S_Straight" depart="216" color="1,0,0"/>
    <vehicle id="N_218" type="normal" route="N_Straight" depart="218" color="1,1,1"/>
    <vehicle id="S_218" type="normal" route="S_Straight" depart="218" color="1,1,1"/>
    <vehicle id="N_219" type="kombi" route="N_Right" depart="219" color="1,1,0"/>
    <vehicle id="S_221" type="kombi" route="S_Straight" depart="221" color="1,1,0"/>
    <vehicle id="W_221" type="kombi" route="W_Straight" depart="221" color="1,1,0"/>
    <vehicle id="N_222" type="normal" route="N_Left" depart="222" color="1,1,1"/>
    <vehicle id="S_223" type="normal" route="S_Straight" depart="223" color="1,1,1"/>
    <vehicle id="N_224" type="normal" route="N_Right" depart="224" color="1,1,1"/>
    <vehicle id="N_225" type="normal" route="N_Right" depart="225" color="1,1,1"/>
    <vehicle id="N_227" type="truck" route="N_Right" depart="227" color="1,0,0"/>
    <vehicle id="S_229" type="normal" route="S_Left" depart="229" color="1,1,1"/>
    <vehicle id="N_230" type="truck" route="N_Straight" depart="230" color="1,0,0"/>
    <vehicle id="N_231" type="normal" route="N_Right" depart="231" color="1,1,1"/>
    <vehicle id="N_234" type="normal" route="N_Straight" depart="234" color="1,1,1"/>
    <vehicle id="S_234" type="normal" route="S_Straight" depart="234" color="1,1,1"/>
    <vehicle id="E_236" type="kombi" route="E_Straight" depart="236" color="1,1,0"/>
    <vehicle id="N_237" type="truck" route="N_Straight" depart="237" color="1,0,0"/>
    <vehicle id="N_238" type="kombi" route="N_Right" depart="238" color="1,1,0"/>
    <vehicle id="N_240" type="normal" route="N_Straight" depart="240" color="1,1,1"/>
    <vehicle id="N_241" type="kombi" route="N_Straight" depart="241" color="1,1,0"/>
    <vehicle id="S_241" type="kombi" route="S_Straight" depart="241" color="1,1,0"/>
    <vehicle id="S_242" type="normal" route="S_Left" depart="242" color="1,1,1"/>
    <vehicle id="N_243" type="kombi" route="N_Straight" depart="243" color="1,1,0"/>
    <vehicle id="S_243" type="kombi" route="S_Straight" depart="243" color="1,1,0"/>
    <vehicle id="N_244" type="normal" route="N_Straight" depart="244" color="1,1,1"/>
    <vehicle id="S_245" type="kombi" route="S_Straight" depart="245" color="1,1,0"/>
    <vehicle id="N_247" type="kombi" route="N_Straight" depart="247" color="1,1,0"/>
    <vehicle id="S_248" type="kombi" route="S_Right" depart="248" color="1,1,0"/>
    <vehicle id="N_249" type="normal" route="N_Straight" depart="249" color="1,1,1"/>
    <vehicle id="N_252" type="truck" route="N_Straight" depart="252" color="1,0,0"/>
    <vehicle id="N_253" type="kombi" route="N_Straight" depart="253" color="1,1,0"/>
    <vehicle id="S_253" type="kombi" route="S_Right" depart="253" color="1,1,0"/>
    <vehicle id="S_255" type="normal" route="S_Straight" depart="255" color="1,1,1"/>
    <vehicle id="N_256" type="normal" route="N_Straight" depart="256" color="1,1,1"/>
    <vehicle id="E_257" type="normal" route="E_Straight" depart="257" color="1,1,1"/>
    <vehicle id="N_258" type="normal" route="N_Right" depart="258" color="1,1,1"/>
    <vehicle id="S_258" type="normal" route="S_Straight" depart="258" color="1,1,1"/>
    <vehicle id="E_258" type="normal" route="E_Straight" depart="258" color="1,1,1"/>
    <vehicle id="N_259" type="kombi" route="N_Straight" depart="259" color="1,1,0"/>
    <vehicle id="N_261" type="normal" route="N_Left" depart="261" color="1,1,1"/>
    <vehicle id="N_263" type="kombi" route="N_Straight" depart="263" color="1,1,0"/>
    <vehicle id="N_264" type="kombi" route="N_Straight" depart="264" color="1,1,0"/>
    <vehicle id="S_264" type="kombi" route="S_Right" depart="264" color="1,1,0"/>
    <vehicle id="N_265" type="normal" route="N_Left" depart="265" color="1,1,1"/>
    <vehicle id="N_267" type="kombi" route="N_Straight" depart="267" color="1,1,0"/>
    <vehicle id="N_268" type="kombi" route="N_Left" depart="268" color="1,1,0"/>
    <vehicle id="W_269" type="truck" route="W_Straight" depart="269" color="1,0,0"/>
    <vehicle id="S_270" type="normal" route="S_Straight" depart="270" color="1,1,1"/>
    <vehicle id="S_271" type="normal" route="S_Left" depart="271" color="1,1,1"/>
    <vehicle id="N_272" type="kombi" route="N_Straight" depart="272" color="1,1,0"/>
    <vehicle id="S_272" type="kombi" route="S_Straight" depart="272" color="1,1,0"/>
    <vehicle id="N_273" type="kombi" route="N_Right" depart="273" color="1,1,0"/>
    <vehicle id="N_275" type="normal" route="N_Straight" depart="275" color="1,1,1"/>
    <vehicle id="S_275" type="normal" route="S_Straight" depart="275" color="1,1,1"/>
    <vehicle id="N_276" type="kombi" route="N_Straight" depart="276" color="1,1,0"/>
    <vehicle id="S_276" type="kombi" route="S_Straight" depart="276" color="1,1,0"/>
    <vehicle id="S_278" type="normal" route="S_Straight" depart="278" color="1,1,1"/>
    <vehicle id="N_280" type="kombi" route="N_Straight" depart="280" color="1,1,0"/>
    <vehicle id="E_280" type="kombi" route="E_Straight" depart="280" color="1,1,0"/>
    <vehicle id="N_281" type="normal" route="N_Straight" depart="281" color="1,1,1"/>
    <vehicle id="N_282" type="normal" route="N_Straight" depart="282" color="1,1,1"/>
    <vehicle id="S_283" type="normal" route="S_Straight" depart="283" color="1,1,1"/>
    <vehicle id="N_284" type="normal" route="N_Left" depart="284" color="1,1,1"/>
    <vehicle id="S_286" type="normal" route="S_Straight" depart="286" color="1,1,1"/>
    <vehicle id="N_288" type="normal" route="N_Straight" depart="288" color="1,1,1"/>
    <vehicle id="S_291" type="normal" route="S_Straight" depart="291" color="1,1,1"/>
    <vehicle id="S_292" type="normal" route="S_Straight" depart="292" color="1,1,1"/>
    <vehicle id="S_293" type="kombi" route="S_Straight" depart="293" color="1,1,0"/>
    <vehicle id="N_294" type="kombi" route="N_Straight" depart="294" color="1,1,0"/>
    <vehicle id="S_294" type="kombi" route="S_Straight" depart="294" color="1,1,0"/>
    <vehicle id="W_295" type="kombi" route="W_Straight" depart="295" color="1,1,0"/>
    <vehicle id="N_297" type="normal" route="N_Straight" depart="297" color="1,1,1"/>
    <vehicle id="S_299" type="normal" route="S_Straight" depart="299" color="1,1,1"/>
    <vehicle id="S_300" type="kombi" route="S_Straight" depart="300" color="1,1,0"/>
    <vehicle id="N_301" type="normal" route="N_Straight" depart="301" color="1,1,1"/>
    <vehicle id="E_301" type="normal" route="E_Straight" depart="301" color="1,1,1"/>
    <vehicle id="W_301" type="normal" route="W_Straight" depart="301" color="1,1,1"/>
    <vehicle id="S_302" type="normal" route="S_Straight" depart="302" color="1,1,1"/>
    <vehicle id="N_304" type="kombi" route="N_Left" depart="304" color="1,1,0"/>
    <vehicle id="E_305" type="kombi" route="E_Straight" depart="305" color="1,1,0"/>
    <vehicle id="S_309" type="normal" route="S_Straight" depart="309" color="1,1,1"/>
    <vehicle id="E_310" type="kombi" route="E_Straight" depart="310" color="1,1,0"/>
    <vehicle id="S_312" type="kombi" route="S_Straight" depart="312" color="1,1,0"/>
    <vehicle id="W_312" type="kombi" route="W_Straight" depart="312" color="1,1,0"/>
    <vehicle id="N_313" type="normal" route="N_Right" depart="313" color="1,1,1"/>
    <vehicle id="N_316" type="kombi" route="N_Straight" depart="316" color="1,1,0"/>
    <vehicle id="N_317" type="truck" route="N_Straight" depart="317" color="1,0,0"/>
    <vehicle id="S_317" type="truck" route="S_Straight" depart="317" color="1,0,0"/>
    <vehicle id="N_318" type="kombi" route="N_Straight" depart="318" color="1,1,0"/>
    <vehicle id="N_319" type="normal" route="N_Straight" depart="319" color="1,1,1"/>
    <vehicle id="N_320" type="normal" route="N_Right" depart="320" color="1,1,1"/>
    <vehicle id="S_320" type="normal" route="S_Left" depart="320" color="1,1,1"/>
    <vehicle id="N_322" type="kombi" route="N_Straight" depart="322" color="1,1,0"/>
    <vehicle id="N_323" type="normal" route="N_Right" depart="323" color="1,1,1"/>
    <vehicle id="N_326" type="kombi" route="N_Straight" depart="326" color="1,1,0"/>
    <vehicle id="S_326" type="kombi" route="S_Right" depart="326" color="1,1,0"/>
    <vehicle id="N_327" type="normal" route="N_Right" depart="327" color="1,1,1"/>
    <vehicle id="S_327" type="normal" route="S_Straight" depart="327" color="1,1,1"/>
    <vehicle id="N_329" type="truck" route="N_Left" depart="329" color="1,0,0"/>
    <vehicle id="S_329" type="truck" route="S_Straight" depart="329" color="1,0,0"/>
    <vehicle id="E_330" type="normal" route="E_Straight" depart="330" color="1,1,1"/>
    <vehicle id="S_332" type="truck" route="S_Straight" depart="332" color="1,0,0"/>
    <vehicle id="N_334" type="normal" route="N_Straight" depart="334" color="1,1,1"/>
    <vehicle id="S_334" type="normal" route="S_Straight" depart="334" color="1,1,1"/>
    <vehicle id="E_334" type="normal" route="E_Straight" depart="334" color="1,1,1"/>
    <vehicle id="S_335" type="normal" route="S_Straight" depart="335" color="1,1,1"/>
    <vehicle id="N_337" type="kombi" route="N_Right" depart="337" color="1,1,0"/>
    <vehicle id="S_337" type="kombi" route="S_Left" depart="337" color="1,1,0"/>
    <vehicle id="N_338" type="normal" route="N_Left" depart="338" color="1,1,1"/>
    <vehicle id="S_340" type="normal" route="S_Right" depart="340" color="1,1,1"/>
    <vehicle id="S_345" type="normal" route="S_Straight" depart="345" color="1,1,1"/>
    <vehicle id="E_345" type="normal" route="E_Straight" depart="345" color="1,1,1"/>
    <vehicle id="N_346" type="kombi" route="N_Straight" depart="346" color="1,1,0"/>
    <vehicle id="S_346" type="kombi" route="S_Straight" depart="346" color="1,1,0"/>
    <vehicle id="S_347" type="normal" route="S_Straight" depart="347" color="1,1,1"/>
    <vehicle id="E_347" type="normal" route="E_Straight" depart="347" color="1,1,1"/>
    <vehicle id="S_351" type="kombi" route="S_Left" depart="351" color="1,1,0"/>
    <vehicle id="E_352" type="normal" route="E_Straight" depart="352" color="1,1,1"/>
    <vehicle id="W_352" type="normal" route="W_Straight" depart="352" color="1,1,1"/>
    <vehicle id="N_353" type="normal" route="N_Right" depart="353" color="1,1,1"/>
    <vehicle id="S_353" type="normal" route="S_Straight" depart="353" color="1,1,1"/>
    <vehicle id="N_354" type="truck" route="N_Straight" depart="354" color="1,0,0"/>
    <vehicle id="S_356" type="normal" route="S_Right" depart="356" color="1,1,1"/>
    <vehicle id="N_357" type="normal" route="N_Straight" depart="357" color="1,1,1"/>
    <vehicle id="N_360" type="truck" route="N_Straight" depart="360" color="1,0,0"/>
    <vehicle id="S_360" type="truck" route="S_Straight" depart="360" color="1,0,0"/>
    <vehicle id="N_361" type="normal" route="N_Straight" depart="361" color="1,1,1"/>
    <vehicle id="E_361" type="normal" route="E_Straight" depart="361" color="1,1,1"/>
    <vehicle id="S_362" type="normal" route="S_Straight" depart="362" color="1,1,1"/>
    <vehicle id="E_362" type="normal" route="E_Straight" depart="362" color="1,1,1"/>
    <vehicle id="S_363" type="kombi" route="S_Straight" depart="363" color="1,1,0"/>
    <vehicle id="N_364" type="normal" route="N_Left" depart="364" color="1,1,1"/>
    <vehicle id="S_365" type="kombi" route="S_Straight" depart="365" color="1,1,0"/>
    <vehicle id="N_366" type="normal" route="N_Left" depart="366" color="1,1,1"/>
    <vehicle id="N_367" type="kombi" route="N_Straight" depart="367" color="1,1,0"/>
    <vehicle id="S_367" type="kombi" route="S_Left" depart="367" color="1,1,0"/>
    <vehicle id="N_368" type="kombi" route="N_Straight" depart="368" color="1,1,0"/>
    <vehicle id="N_370" type="normal" route="N_Right" depart="370" color="1,1,1"/>
    <vehicle id="S_371" type="normal" route="S_Straight" depart="371" color="1,1,1"/>
    <vehicle id="S_374" type="normal" route="S_Straight" depart="374" color="1,1,1"/>
    <vehicle id="N_375" type="kombi" route="N_Straight" depart="375" color="1,1,0"/>
    <vehicle id="S_376" type="normal" route="S_Straight" depart="376" color="1,1,1"/>
    <vehicle id="E_377" type="normal" route="E_Straight" depart="377" color="1,1,1"/>
    <vehicle id="S_380" type="kombi" route="S_Straight" depart="380" color="1,1,0"/>
    <vehicle id="S_381" type="truck" route="S_Straight" depart="381" color="1,0,0"/>
    <vehicle id="S_383" type="normal" route="S_Straight" depart="383" color="1,1,1"/>
    <vehicle id="S_385" type="normal" route="S_Right" depart="385" color="1,1,1"/>
    <vehicle id="S_387" type="truck" route="S_Right" depart="387" color="1,0,0"/>
    <vehicle id="S_388" type="truck" route="S_Straight" depart="388" color="1,0,0"/>
    <vehicle id="N_391" type="normal" route="N_Right" depart="391" color="1,1,1"/>
    <vehicle id="S_391" type="normal" route="S_Straight" depart="391" color="1,1,1"/>
    <vehicle id="S_393" type="normal" route="S_Straight" depart="393" color="1,1,1"/>