<routes>
        <!-- 1. Define Driver Behaviors (The "Harare Mix") -->
        
        <!-- Normal Driver: Imperfect (sigma=0.5), tries to follow rules -->
        <vType id="normal" accel="2.0" decel="4.5" sigma="0.5" length="5" minGap="2.5" maxSpeed="15" guiShape="passenger"/>
        
        <!-- THE KOMBI: Aggressive, tailgates (minGap 0.5), speeds (factor 1.5), weaves lanes -->
        <vType id="kombi" accel="4.5" decel="7.0" sigma="0.9" length="5" minGap="0.5" maxSpeed="25" speedFactor="1.5" 
               laneChangeModel="SL2015" lcStrategic="10.0" lcSpeedGain="10.0" lcCooperative="0.0" lcPushy="1.0" guiShape="bus"/>
        
        <!-- THE HEAVY TRUCK: Slow acceleration, blocks traffic -->
        <vType id="truck" accel="0.8" decel="3.0" sigma="0.2" length="10" minGap="4.0" maxSpeed="8" guiShape="truck"/>

        <!-- 2. Define Routes -->
        <!-- North Incoming -->
        <route id="N_Straight" edges="top0A0 A0bottom0"/>
        <route id="N_Left"     edges="top0A0 A0left0"/>
        <route id="N_Right"    edges="top0A0 A0right0"/>

        <!-- South Incoming -->
        <route id="S_Straight" edges="bottom0A0 A0top0"/>
        <route id="S_Left"     edges="bottom0A0 A0right0"/>
        <route id="S_Right"    edges="bottom0A0 A0left0"/>

        <!-- East Incoming -->
        <route id="E_Straight" edges="right0A0 A0left0"/>
        <route id="E_Left"     edges="right0A0 A0bottom0"/>
        <route id="E_Right"    edges="right0A0 A0top0"/>

        <!-- West Incoming -->
        <route id="W_Straight" edges="left0A0 A0right0"/>
        <route id="W_Left"     edges="left0A0 A0top0"/>
        <route id="W_Right"    edges="left0A0 A0bottom0"/>
        
    <vehicle id="N_0" type="kombi" route="N_Right" depart="0" color="1,1,0"/>
    <vehicle id="S_1" type="normal" route="S_Straight" depart="1" color="1,1,1"/>
    <vehicle id="S_2" type="normal" route="S_Straight" depart="2" color="1,1,1"/>
    <vehicle id="E_3" type="kombi" route="E_Straight" depart="3" color="1,1,0"/>
    <vehicle id="S_5" type="kombi" route="S_Straight" depart="5" color="1,1,0"/>
    <vehicle id="S_6" type="kombi" route="S_Straight" depart="6" color="1,1,0"/>
    <vehicle id="E_6" type="kombi" route="E_Straight" depart="6" color="1,1,0"/>
    <vehicle id="N_8" type="normal" route="N_Straight" depart="8" color="1,1,1"/>
    <vehicle id="S_8" type="normal" route="S_Straight" depart="8" color="1,1,1"/>
    <vehicle id="S_9" type="normal" route="S_Straight" depart="9" color="1,1,1"/>
    <vehicle id="N_10" type="kombi" route="N_Straight" depart="10" color="1,1,0"/>
    <vehicle id="S_10" type="kombi" route="S_Straight" depart="10" color="1,1,0"/>
    <vehicle id="N_11" type="normal" route="N_Straight" depart="11" color="1,1,1"/>
    <vehicle id="S_11" type="normal" route="S_Straight" depart="11" color="1,1,1"/>
    <vehicle id="W_12" type="kombi" route="W_Straight" depart="12" color="1,1,0"/>
    <vehicle id="S_13" type="normal" route="S_Straight" depart="13" color="1,1,1"/>
    <vehicle id="S_15" type="truck" route="S_Straight" depart="15" color="1,0,0"/>
    <vehicle id="S_16" type="normal" route="S_Straight" depart="16" color="1,1,1"/>
    <vehicle id="N_17" type="kombi" route="N_Right" depart="17" color="1,1,0"/>
    <vehicle id="E_17" type="kombi" route="E_Straight" depart="17" color="1,1,0"/>
    <vehicle id="E_18" type="normal" route="E_Straight" depart="18" color="1,1,1"/>
    <vehicle id="S_19" type="normal" route="S_Straight" depart="19" color="1,1,1"/>
    <vehicle id="N_22" type="kombi" route="N_Straight" depart="22" color="1,1,0"/>
    <vehicle id="S_22" type="kombi" route="S_Straight" depart="22" color="1,1,0"/>
    <vehicle id="N_24" type="truck" route="N_Straight" depart="24" color="1,0,0"/>
    <vehicle id="N_26" type="kombi" route="N_Right" depart="26" color="1,1,0"/>
    <vehicle id="S_27" type="normal" route="S_Straight" depart="27" color="1,1,1"/>
    <vehicle id="N_28" type="kombi" route="N_Straight" depart="28" color="1,1,0"/>
    <vehicle id="N_30" type="normal" route="N_Straight" depart="30" color="1,1,1"/>
    <vehicle id="E_30" type="normal" route="E_Straight" depart="30" color="1,1,1"/>
    <vehicle id="S_31" type="normal" route="S_Right" depart="31" color="1,1,1"/>
    <vehicle id="W_33" type="normal" route="W_Straight" depart="33" color="1,1,1"/>
    <vehicle id="N_34" type="kombi" route="N_Straight" depart="34" color="1,1,0"/>
    <vehicle id="N_35" type="normal" route="N_Straight" depart="35" color="1,1,1"/>
    <vehicle id="N_36" type="truck" route="N_Straight" depart="36" color="1,0,0"/>
    <vehicle id="S_36" type="truck" route="S_Right" depart="36" color="1,0,0"/>
    <vehicle id="N_37" type="normal" route="N_Left" depart="37" color="1,1,1"/>
    <vehicle id="S_37" type="normal" route="S_Straight" depart="37" color="1,1,1"/>
    <vehicle id="N_39" type="truck" route="N_Straight" depart="39" color="1,0,0"/>
    <vehicle id="S_41" type="normal" route="S_Straight" depart="41" color="1,1,1"/>
    <vehicle id="W_41" type="normal" route="W_Straight" depart="41" color="1,1,1"/>
    <vehicle id="N_42" type="normal" route="N_Straight" depart="42" color="1,1,1"/>
    <vehicle id="N_43" type="normal" route="N_Left" depart="43" color="1,1,1"/>
    <vehicle id="S_43" type="normal" route="S_Straight" depart="43" color="1,1,1"/>
    <vehicle id="N_47" type="normal" route="N_Right" depart="47" color="1,1,1"/>
    <vehicle id="S_47" type="normal" route="S_Left" depart="47" color="1,1,1"/>
    <vehicle id="W_47" type="normal" route="W_Straight" depart="47" color="1,1,1"/>
    <vehicle id="E_48" type="normal" route="E_Straight" depart="48" color="1,1,1"/>
    <vehicle id="N_49" type="normal" route="N_Straight" depart="49" color="1,1,1"/>
    <vehicle id="N_52" type="kombi" route="N_Straight" depart="52" color="1,1,0"/>
    <vehicle id="S_52" type="kombi" route="S_Straight" depart="52" color="1,1,0"/>
    <vehicle id="N_54" type="kombi" route="N_Straight" depart="54" color="1,1,0"/>
    <vehicle id="S_54" type="kombi" route="S_Straight" depart="54" color="1,1,0"/>
    <vehicle id="W_55" type="normal" route="W_Straight" depart="55" color="1,1,1"/>
    <vehicle id="S_56" type="kombi" route="S_Right" depart="56" color="1,1,0"/>
    <vehicle id="S_57" type="normal" route="S_Straight" depart="57" color="1,1,1"/>
    <vehicle id="W_58" type="normal" route="W_Straight" depart="58" color="1,1,1"/>
    <vehicle id="N_59" type="kombi" route="N_Straight" depart="59" color="1,1,0"/>
    <vehicle id="N_60" type="truck" route="N_Straight" depart="60" color="1,0,0"/>
    <vehicle id="N_62" type="normal" route="N_Straight" depart="62" color="1,1,1"/>
    <vehicle id="S_62" type="normal" route="S_Straight" depart="62" color="1,1,1"/>
    <vehicle id="N_63" type="kombi" route="N_Straight" depart="63" color="1,1,0"/>
    <vehicle id="S_63" type="kombi" route="S_Straight" depart="63" color="1,1,0"/>
    <vehicle id="N_64" type="normal" route="N_Straight" depart="64" color="1,1,1"/>
    <vehicle id="S_64" type="normal" route="S_Straight" depart="64" color="1,1,1"/>
    <vehicle id="S_65" type="normal" route="S_Straight" depart="65" color="1,1,1"/>
    <vehicle id="N_66" type="kombi" route="N_Straight" depart="66" color="1,1,0"/>
    <vehicle id="S_67" type="kombi" route="S_Left" depart="67" color="1,1,0"/>
    <vehicle id="S_68" type="normal" route="S_Straight" depart="68" color="1,1,1"/>
    <vehicle id="S_70" type="kombi" route="S_Straight" depart="70" color="1,1,0"/>
    <vehicle id="N_71" type="kombi" route="N_Straight" depart="71" color="1,1,0"/>
    <vehicle id="S_72" type="normal" route="S_Straight" depart="72" color="1,1,1"/>
    <vehicle id="S_74" type="normal" route="S_Straight" depart="74" color="1,1,1"/>
    <vehicle id="N_75" type="normal" route="N_Right" depart="75" color="1,1,1"/>
    <vehicle id="E_76" type="kombi" route="E_Straight" depart="76" color="1,1,0"/>
    <vehicle id="S_77" type="kombi" route="S_Straight" depart="77" color="1,1,0"/>
    <vehicle id="S_78" type="normal" route="S_Left" depart="78" color="1,1,1"/>
    <vehicle id="N_80" type="kombi" route="N_Straight" depart="80" color="1,1,0"/>
    <vehicle id="S_80" type="kombi" route="S_Straight" depart="80" color="1,1,0"/>
    <vehicle id="S_81" type="truck" route="S_Left" depart="81" color="1,0,0"/>
    <vehicle id="N_82" type="normal" route="N_Right" depart="82" color="1,1,1"/>
    <vehicle id="S_82" type="normal" route="S_Straight" depart="82" color="1,1,1"/>
    <vehicle id="S_84" type="truck" route="S_Straight" depart="84" color="1,0,0"/>
    <vehicle id="N_86" type="truck" route="N_Straight" depart="86" color="1,0,0"/>
    <vehicle id="N_87" type="normal" route="N_Right" depart="87" color="1,1,1"/>
    <vehicle id="S_87" type="normal" route="S_Left" depart="87" color="1,1,1"/>
    <vehicle id="S_88" type="kombi" route="S_Straight" depart="88" color="1,1,0"/>
    <vehicle id="S_89" type="normal" route="S_Right" depart="89" color="1,1,1"/>
    <vehicle id="N_91" type="normal" route="N_Straight" depart="91" color="1,1,1"/>
    <vehicle id="E_92" type="normal" route="E_Straight" depart="92" color="1,1,1"/>
    <vehicle id="S_93" type="normal" route="S_Straight" depart="93" color="1,1,1"/>
    <vehicle id="W_93" type="normal" route="W_Straight" depart="93" color="1,1,1"/>
    <vehicle id="N_94" type="normal" route="N_Straight" depart="94" color="1,1,1"/>
    <vehicle id="S_95" type="truck" route="S_Left" depart="95" color="1,0,0"/>
    <vehicle id="S_96" type="kombi" route="S_Straight" depart="96" color="1,1,0"/>
    <vehicle id="S_99" type="kombi" route="S_Straight" depart="99" color="1,1,0"/>
    <vehicle id="E_99" type="kombi" route="E_Straight" depart="99" color="1,1,0"/>
    <vehicle id="W_99" type="kombi" route="W_Straight" depart="99" color="1,1,0"/>
    <vehicle id="N_101" type="normal" route="N_Left" depart="101" color="1,1,1"/>
    <vehicle id="E_101" type="normal" route="E_Straight" depart="101" color="1,1,1"/>
    <vehicle id="S_102" type="kombi" route="S_Straight" depart="102" color="1,1,0"/>
    <vehicle id="W_102" type="kombi" route="W_Straight" depart="102" color="1,1,0"/>
    <vehicle id="N_103" type="normal" route="N_Straight" depart="103" color="1,1,1"/>
    <vehicle id="N_104" type="normal" route="N_Right" depart="104" color="1,1,1"/>
    <vehicle id="N_105" type="normal" route="N_Straight" depart="105" color="1,1,1"/>
    <vehicle id="E_105" type="normal" route="E_Straight" depart="105" color="1,1,1"/>
    <vehicle id="N_106" type="kombi" route="N_Straight" depart="106" color="1,1,0"/>
    <vehicle id="S_107" type="kombi" route="S_Straight" depart="107" color="1,1,0"/>
    <vehicle id="N_109" type="normal" route="N_Straight" depart="109" color="1,1,1"/>
    <vehicle id="N_111" type="truck" route="N_Left" depart="111" color="1,0,0"/>
    <vehicle id="S_111" type="truck" route="S_Straight" depart="111" color="1,0,0"/>
    <vehicle id="E_111" type="truck" route="E_Straight" depart="111" color="1,0,0"/>
    <vehicle id="S_112" type="kombi" route="S_Straight" depart="112" color="1,1,0"/>
    <vehicle id="N_113" type="truck" route="N_Straight" depart="113" color="1,0,0"/>
    <vehicle id="W_113" type="truck" route="W_Straight" depart="113" color="1,0,0"/>
    <vehicle id="N_114" type="normal" route="N_Left" depart="114" color="1,1,1"/>
    <vehicle id="N_116" type="normal" route="N_Left" depart="116" color="1,1,1"/>
    <vehicle id="S_116" type="normal" route="S_Left" depart="116" color="1,1,1"/>
    <vehicle id="N_119" type="normal" route="N_Straight" depart="119" color="1,1,1"/>
    <vehicle id="N_120" type="normal" route="N_Straight" depart="120" color="1,1,1"/>
    <vehicle id="N_121" type="normal" route="N_Left" depart="121" color="1,1,1"/>
    <vehicle id="S_121" type="normal" route="S_Straight" depart="121" color="1,1,1"/>
    <vehicle id="N_123" type="normal" route="N_Straight" depart="123" color="1,1,1"/>
    <vehicle id="E_124" type="normal" route="E_Straight" depart="124" color="1,1,1"/>
    <vehicle id="N_125" type="normal" route="N_Left" depart="125" color="1,1,1"/>
    <vehicle id="E_125" type="normal" route="E_Straight" depart="125" color="1,1,1"/>
    <vehicle id="N_126" type="normal" route="N_Straight" depart="126" color="1,1,1"/>
    <vehicle id="W_127" type="kombi" route="W_Straight" depart="127" color="1,1,0"/>
    <vehicle id="S_128" type="truck" route="S_Straight" depart="128" color="1,0,0"/>
    <vehicle id="S_129" type="normal" route="S_Straight" depart="129" color="1,1,1"/>
    <vehicle id="N_130" type="normal" route="N_Straight" depart="130" color="1,1,1"/>
    <vehicle id="S_130" type="normal" route="S_Left" depart="130" color="1,1,1"/>
    <vehicle id="S_131" type="kombi" route="S_Straight" depart="131" color="1,1,0"/>
    <vehicle id="S_132" type="kombi" route="S_Straight" depart="132" color="1,1,0"/>
    <vehicle id="S_134" type="kombi" route="S_Straight" depart="134" color="1,1,0"/>
    <vehicle id="N_137" type="kombi" route="N_Straight" depart="137" color="1,1,0"/>
    <vehicle id="N_138" type="normal" route="N_Straight" depart="138" color="1,1,1"/>
    <vehicle id="N_141" type="normal" route="N_Straight" depart="141" color="1,1,1"/>
    <vehicle id="S_142" type="normal" route="S_Left" depart="142" color="1,1,1"/>
    <vehicle id="S_143" type="normal" route="S_Straight" depart="143" color="1,1,1"/>
    <vehicle id="E_147" type="normal" route="E_Straight" depart="147" color="1,1,1"/>
    <vehicle id="S_148" type="kombi" route="S_Straight" depart="148" color="1,1,0"/>
    <vehicle id="E_148" type="kombi" route="E_Straight" depart="148" color="1,1,0"/>
    <vehicle id="N_149" type="kombi" route="N_Straight" depart="149" color="1,1,0"/>
    <vehicle id="N_150" type="kombi" route="N_Straight" depart="150" color="1,1,0"/>
    <vehicle id="S_150" type="kombi" route="S_Straight" depart="150" color="1,1,0"/>
    <vehicle id="W_150" type="kombi" route="W_Straight" depart="150" color="1,1,0"/>
    <vehicle id="N_151" type="normal" route="N_Straight" depart="151" color="1,1,1"/>
    <vehicle id="S_151" type="normal" route="S_Left" depart="151" color="1,1,1"/>
    <vehicle id="W_152" type="normal" route="W_Straight" depart="152" color="1,1,1"/>
    <vehicle id="S_153" type="normal" route="S_Straight" depart="153" color="1,1,1"/>
    <vehicle id="N_154" type="kombi" route="N_Straight" depart="154" color="1,1,0"/>
    <vehicle id="S_154" type="kombi" route="S_Straight" depart="154" color="1,1,0"/>
    <vehicle id="N_155" type="truck" route="N_Straight" depart="155" color="1,0,0"/>
    <vehicle id="S_155" type="truck" route="S_Right" depart="155" color="1,0,0"/>
    <vehicle id="E_155" type="truck" route="E_Straight" depart="155" color="1,0,0"/>
    <vehicle id="N_156" type="normal" route="N_Straight" depart="156" color="1,1,1"/>
    <vehicle id="S_156" type="normal" route="S_Right" depart="156" color="1,1,1"/>
    <vehicle id="N_158" type="kombi" route="N_Right" depart="158" color="1,1,0"/>
    <vehicle id="E_158" type="kombi" route="E_Straight" depart="158" color="1,1,0"/>
    <vehicle id="S_159" type="normal" route="S_Right" depart="159" color="1,1,1"/>
    <vehicle id="N_160" type="kombi" route="N_Straight" depart="160" color="1,1,0"/>
    <vehicle id="N_161" type="normal" route="N_Straight" depart="161" color="1,1,1"/>
    <vehicle id="S_162" type="normal" route="S_Straight" depart="162" color="1,1,1"/>
    <vehicle id="S_163" type="normal" route="S_Straight" depart="163" color="1,1,1"/>
    <vehicle id="N_164" type="kombi" route="N_Straight" depart="164" color="1,1,0"/>
    <vehicle id="S_164" type="kombi" route="S_Straight" depart="164" color="1,1,0"/>
    <vehicle id="N_165" type="kombi" route="N_Left" depart="165" color="1,1,0"/>
    <vehicle id="N_166" type="kombi" route="N_Straight" depart="166" color="1,1,0"/>
    <vehicle id="S_167" type="normal" route="S_Straight" depart="167" color="1,1,1"/>
    <vehicle id="W_168" type="normal" route="W_Straight" depart="168" color="1,1,1"/>
    <vehicle id="N_170" type="truck" route="N_Left" depart="170" color="1,0,0"/>
    <vehicle id="S_170" type="truck" route="S_Left" depart="170" color="1,0,0"/>
    <vehicle id="E_170" type="truck" route="E_Straight" depart="170" color="1,0,0"/>
    <vehicle id="E_171" type="kombi" route="E_Straight" depart="171" color="1,1,0"/>
    <vehicle id="S_172" type="kombi" route="S_Straight" depart="172" color="1,1,0"/>
    <vehicle id="N_174" type="normal" route="N_Left" depart="174" color="1,1,1"/>
    <vehicle id="S_174" type="normal" route="S_Straight" depart="174" color="1,1,1"/>
    <vehicle id="N_175" type="normal" route="N_Right" depart="175" color="1,1,1"/>
    <vehicle id="E_175" type="normal" route="E_Straight" depart="175" color="1,1,1"/>
    <vehicle id="S_176" type="normal" route="S_Straight" depart="176" color="1,1,1"/>
    <vehicle id="S_179" type="normal" route="S_Right" depart="179" color="1,1,1"/>
    <vehicle id="S_181" type="truck" route="S_Straight" depart="181" color="1,0,0"/>
    <vehicle id="N_182" type="truck" route="N_Straight" depart="182" color="1,0,0"/>
    <vehicle id="S_182" type="truck" route="S_Straight" depart="182" color="1,0,0"/>
    <vehicle id="S_184" type="kombi" route="S_Left" depart="184" color="1,1,0"/>
    <vehicle id="S_185" type="normal" route="S_Straight" depart="185" color="1,1,1"/>
    <vehicle id="N_187" type="normal" route="N_Straight" depart="187" color="1,1,1"/>
    <vehicle id="S_188" type="kombi" route="S_Straight" depart="188" color="1,1,0"/>
    <vehicle id="N_189" type="normal" route="N_Straight" depart="189" color="1,1,1"/>
    <vehicle id="N_190" type="normal" route="N_Left" depart="190" color="1,1,1"/>
    <vehicle id="S_190" type="normal" route="S_Straight" depart="190" color="1,1,1"/>
    <vehicle id="N_191" type="normal" route="N_Straight" depart="191" color="1,1,1"/>
    <vehicle id="S_191" type="normal" route="S_Straight" depart="191" color="1,1,1"/>
    <vehicle id="S_192" type="normal" route="S_Straight" depart="192" color="1,1,1"/>
    <vehicle id="N_193" type="normal" route="N_Left" depart="193" color="1,1,1"/>
    <vehicle id="N_194" type="kombi" route="N_Straight" depart="194" color="1,1,0"/>
    <vehicle id="E_194" type="kombi" route="E_Straight" depart="194" color="1,1,0"/>
    <vehicle id="N_196" type="kombi" route="N_Straight" depart="196" color="1,1,0"/>
    <vehicle id="E_196" type="kombi" route="E_Straight" depart="196" color="1,1,0"/>
    <vehicle id="E_199" type="normal" route="E_Straight" depart="199" color="1,1,1"/>
    <vehicle id="W_199" type="normal" route="W_Straight" depart="199" color="1,1,1"/>
    <vehicle id="W_200" type="kombi" route="W_Straight" depart="200" color="1,1,0"/>
    <vehicle id="N_202" type="kombi" route="N_Left" depart="202" color="1,1,0"/>
    <vehicle id="S_202" type="kombi" route="S_Straight" depart="202" color="1,1,0"/>
    <vehicle id="N_203" type="kombi" route="N_Straight" depart="203" color="1,1,0"/>
    <vehicle id="E_203" type="kombi" route="E_Straight" depart="203" color="1,1,0"/>
    <vehicle id="N_209" type="normal" route="N_Straight" depart="209" color="1,1,1"/>
    <vehicle id="N_210" type="normal" route="N_Straight" depart="210" color="1,1,1"/>
    <vehicle id="S_211" type="truck" route="S_Straight" depart="211" color="1,0,0"/>
    <vehicle id="N_212" type="kombi" route="N_Straight" depart="212" color="1,1,0"/>
    <vehicle id="S_212" type="kombi" route="S_Straight" depart="212" color="1,1,0"/>
    <vehicle id="S_213" type="kombi" route="S_Straight" depart="213" color="1,1,0"/>
    <vehicle id="N_214" type="kombi" route="N_Straight" depart="214" color="1,1,0"/>
    <vehicle id="W_214" type="kombi" route="W_Straight" depart="214" color="1,1,0"/>
    <vehicle id="S_217" type="normal" route="S_Straight" depart="217" color="1,1,1"/>
    <vehicle id="W_217" type="normal" route="W_Straight" depart="217" color="1,1,1"/>
    <vehicle id="N_219" type="kombi" route="N_Straight" depart="219" color="1,1,0"/>
    <vehicle id="S_220" type="kombi" route="S_Straight" depart="220" color="1,1,0"/>
    <vehicle id="E_220" type="kombi" route="E_Straight" depart="220" color="1,1,0"/>
    <vehicle id="S_222" type="normal" route="S_Left" depart="222" color="1,1,1"/>
    <vehicle id="S_224" type="normal" route="S_Straight" depart="224" color="1,1,1"/>
    <vehicle id="S_226" type="kombi" route="S_Straight" depart="226" color="1,1,0"/>
    <vehicle id="E_227" type="normal" route="E_Straight" depart="227" color="1,1,1"/>
    <vehicle id="S_230" type="normal" route="S_Left" depart="230" color="1,1,1"/>
    <vehicle id="E_230" type="normal" route="E_Straight" depart="230" color="1,1,1"/>
    <vehicle id="N_233" type="normal" route="N_Straight" depart="233" color="1,1,1"/>
    <vehicle id="S_233" type="normal" route="S_Straight" depart="233" color="1,1,1"/>
    <vehicle id="N_234" type="normal" route="N_Straight" depart="234" color="1,1,1"/>
    <vehicle id="S_234" type="normal" route="S_Right" depart="234" color="1,1,1"/>
    <vehicle id="W_234" type="normal" route="W_Straight" depart="234" color="1,1,1"/>
    <vehicle id="N_235" type="kombi" route="N_Right" depart="235" color="1,1,0"/>
    <vehicle id="W_235" type="kombi" route="W_Straight" depart="235" color="1,1,0"/>
    <vehicle id="S_236" type="kombi" route="S_Straight" depart="236" color="1,1,0"/>
    <vehicle id="E_237" type="normal" route="E_Straight" depart="237" color="1,1,1"/>
    <vehicle id="N_239" type="kombi" route="N_Right" depart="239" color="1,1,0"/>
    <vehicle id="S_239" type="kombi" route="S_Straight" depart="239" color="1,1,0"/>
    <vehicle id="E_239" type="kombi" route="E_Straight" depart="239" color="1,1,0"/>
    <vehicle id="N_240" type="normal" route="N_Left" depart="240" color="1,1,1"/>
    <vehicle id="S_242" type="normal" route="S_Right" depart="242" color="1,1,1"/>
    <vehicle id="S_243" type="kombi" route="S_Straight" depart="243" color="1,1,0"/>
    <vehicle id="N_245" type="truck" route="N_Straight" depart="245" color="1,0,0"/>
    <vehicle id="S_245" type="truck" route="S_Straight" depart="245" color="1,0,0"/>
    <vehicle id="S_246" type="normal" route="S_Straight" depart="246" color="1,1,1"/>
    <vehicle id="E_247" type="normal" route="E_Straight" depart="247" color="1,1,1"/>
    <vehicle id="N_248" type="normal" route="N_Straight" depart="248" color="1,1,1"/>
    <vehicle id="N_249" type="normal" route="N_Straight" depart="249" color="1,1,1"/>
    <vehicle id="N_250" type="normal" route="N_Left" depart="250" color="1,1,1"/>
    <vehicle id="S_250" type="normal" route="S_Straight" depart="250" color="1,1,1"/>
    <vehicle id="S_251" type="kombi" route="S_Straight" depart="251" color="1,1,0"/>
    <vehicle id="W_252" type="kombi" route="W_Straight" depart="252" color="1,1,0"/>
    <vehicle id="S_253" type="truck" route="S_Straight" depart="253" color="1,0,0"/>
    <vehicle id="W_254" type="kombi" route="W_Straight" depart="254" color="1,1,0"/>
    <vehicle id="S_255" type="truck" route="S_Straight" depart="255" color="1,0,0"/>
    <vehicle id="N_256" type="normal" route="N_Left" depart="256" color="1,1,1"/>
    <vehicle id="E_258" type="kombi" route="E_Straight" depart="258" color="1,1,0"/>
    <vehicle id="S_259" type="normal" route="S_Straight" depart="259" color="1,1,1"/>
    <vehicle id="S_261" type="truck" route="S_Right" depart="261" color="1,0,0"/>
    <vehicle id="N_262" type="normal" route="N_Right" depart="262" color="1,1,1"/>
    <vehicle id="S_262" type="normal" route="S_Straight" depart="262" color="1,1,1"/>
    <vehicle id="W_262" type="normal" route="W_Straight" depart="262" color="1,1,1"/>
    <vehicle id="E_264" type="truck" route="E_Straight" depart="264" color="1,0,0"/>
    <vehicle id="N_265" type="normal" route="N_Right" depart="265" color="1,1,1"/>
    <vehicle id="S_265" type="normal" route="S_Straight" depart="265" color="1,1,1"/>
    <vehicle id="N_267" type="normal" route="N_Straight" depart="267" color="1,1,1"/>
    <vehicle id="S_270" type="normal" route="S_Right" depart="270" color="1,1,1"/>
    <vehicle id="N_271" type="kombi" route="N_Straight" depart="271" color="1,1,0"/>
    <vehicle id="S_271" type="kombi" route="S_Right" depart="271" color="1,1,0"/>
    <vehicle id="N_272" type="normal" route="N_Straight" depart="272" color="1,1,1"/>
    <vehicle id="S_272" type="normal" route="S_Straight" depart="272" color="1,1,1"/>
    <vehicle id="S_273" type="normal" route="S_Straight" depart="273" color="1,1,1"/>
    <vehicle id="N_274" type="kombi" route="N_Left" depart="274" color="1,1,0"/>
    <vehicle id="W_275" type="normal" route="W_Straight" depart="275" color="1,1,1"/>
    <vehicle id="S_276" type="normal" route="S_Right" depart="276" color="1,1,1"/>
    <vehicle id="S_277" type="normal" route="S_Straight" depart="277" color="1,1,1"/>
    <vehicle id="N_279" type="truck" route="N_Straight" depart="279" color="1,0,0"/>
    <vehicle id="N_280" type="kombi" route="N_Straight" depart="280" color="1,1,0"/>
    <vehicle id="N_281" type="kombi" route="N_Straight" depart="281" color="1,1,0"/>
    <vehicle id="S_283" type="normal" route="S_Straight" depart="283" color="1,1,1"/>
    <vehicle id="S_284" type="kombi" route="S_Straight" depart="284" color="1,1,0"/>
    <vehicle id="N_285" type="normal" route="N_Straight" depart="285" color="1,1,1"/>
    <vehicle id="E_288" type="normal" route="E_Straight" depart="288" color="1,1,1"/>
    <vehicle id="N_289" type="kombi" route="N_Straight" depart="289" color="1,1,0"/>
    <vehicle id="N_290" type="normal" route="N_Straight" depart="290" color="1,1,1"/>
    <vehicle id="S_290" type="normal" route="S_Left" depart="290" color="1,1,1"/>
    <vehicle id="N_291" type="kombi" route="N_Left" depart="291" color="1,1,0"/>
    <vehicle id="S_291" type="kombi" route="S_Straight" depart="291" color="1,1,0"/>
    <vehicle id="W_292" type="normal" route="W_Straight" depart="292" color="1,1,1"/>
    <vehicle id="N_293" type="truck" route="N_Right" depart="293" color="1,0,0"/>
    <vehicle id="W_293" type="truck" route="W_Straight" depart="293" color="1,0,0"/>
    <vehicle id="N_294" type="normal" route="N_Straight" depart="294" color="1,1,1"/>
    <vehicle id="N_295" type="kombi" route="N_Straight" depart="295" color="1,1,0"/>
    <vehicle id="S_295" type="kombi" route="S_Straight" depart="295" color="1,1,0"/>
    <vehicle id="N_297" type="normal" route="N_Straight" depart="297" color="1,1,1"/>
    <vehicle id="W_297" type="normal" route="W_Straight" depart="297" color="1,1,1"/>
    <vehicle id="N_298" type="normal" route="N_Straight" depart="298" color="1,1,1"/>
    <vehicle id="S_298" type="normal" route="S_Straight" depart="298" color="1,1,1"/>
    <vehicle id="S_299" type="normal" route="S_Straight" depart="299" color="1,1,1"/>
    <vehicle id="W_299" type="normal" route="W_Straight" depart="299" color="1,1,1"/>
    <vehicle id="N_300" type="normal" route="N_Right" depart="300" color="1,1,1"/>
    <vehicle id="S_300" type="normal" route="S_Straight" depart="300" color="1,1,1"/>
    <vehicle id="S_301" type="normal" route="S_Straight" depart="301" color="1,1,1"/>
    <vehicle id="S_302" type="normal" route="S_Left" depart="302" color="1,1,1"/>
    <vehicle id="N_303" type="normal" route="N_Straight" depart="303" color="1,1,1"/>
    <vehicle id="N_304" type="normal" route="N_Left" depart="304" color="1,1,1"/>
    <vehicle id="S_304" type="normal" route="S_Straight" depart="304" color="1,1,1"/>
    <vehicle id="W_304" type="normal" route="W_Straight" depart="304" color="1,1,1"/>
    <vehicle id="N_306" type="normal" route="N_Straight" depart="306" color="1,1,1"/>
    <vehicle id="N_307" type="truck" route="N_Straight" depart="307" color="1,0,0"/>
    <vehicle id="N_308" type="normal" route="N_Right" depart="308" color="1,1,1"/>
    <vehicle id="S_308" type="normal" route="S_Right" depart="308" color="1,1,1"/>
    <vehicle id="W_308" type="normal" route="W_Straight" depart="308" color="1,1,1"/>
    <vehicle id="N_309" type="kombi" route="N_Straight" depart="309" color="1,1,0"/>
    <vehicle id="S_309" type="kombi" route="S_Straight" depart="309" color="1,1,0"/>
    <vehicle id="N_310" type="normal" route="N_Straight" depart="310" color="1,1,1"/>
    <vehicle id="N_311" type="kombi" route="N_Straight" depart="311" color="1,1,0"/>
    <vehicle id="S_311" type="kombi" route="S_Straight" depart="311" color="1,1,0"/>
    <vehicle id="E_311" type="kombi" route="E_Straight" depart="311" color="1,1,0"/>
    <vehicle id="N_312" type="truck" route="N_Straight" depart="312" color="1,0,0"/>
    <vehicle id="N_313" type="normal" route="N_Straight" depart="313" color="1,1,1"/>
    <vehicle id="S_313" type="normal" route="S_Straight" depart="313" color="1,1,1"/>
    <vehicle id="N_314" type="kombi" route="N_Straight" depart="314" color="1,1,0"/>
    <vehicle id="S_314" type="kombi" route="S_Straight" depart="314" color="1,1,0"/>
    <vehicle id="N_315" type="normal" route="N_Right" depart="315" color="1,1,1"/>
    <vehicle id="N_316" type="kombi" route="N_Left" depart="316" color="1,1,0"/>
    <vehicle id="N_317" type="kombi" route="N_Straight" depart="317" color="1,1,0"/>
    <vehicle id="S_317" type="kombi" route="S_Left" depart="317" color="1,1,0"/>
    <vehicle id="S_318" type="normal" route="S_Straight" depart="318" color="1,1,1"/>
    <vehicle id="N_319" type="normal" route="N_Straight" depart="319" color="1,1,1"/>
    <vehicle id="W_319" type="normal" route="W_Straight" depart="319" color="1,1,1"/>
    <vehicle id="S_321" type="normal" route="S_Right" depart="321" color="1,1,1"/>
    <vehicle id="N_324" type="normal" route="N_Straight" depart="324" color="1,1,1"/>
    <vehicle id="S_325" type="normal" route="S_Straight" depart="325" color="1,1,1"/>
    <vehicle id="E_326" type="normal" route="E_Straight" depart="326" color="1,1,1"/>
    <vehicle id="S_328" type="normal" route="S_Straight" depart="328" color="1,1,1"/>
    <vehicle id="S_329" type="normal" route="S_Straight" depart="329" color="1,1,1"/>